2fcx_lig
 OpenBabel11021811433D
libRbt.so/2013.1/901 2013/11/27
 22 23  0  0  0  0  0  0  0  0999 V2000
   32.1461   13.2858   12.9105 N   0  0  0  0  0  0  0  0  0  0  0  0
   30.3101   10.8374   16.7458 N   0  0  0  0  0  0  0  0  0  0  0  0
   30.6359    6.5706   17.0812 N   0  0  0  0  0  0  0  0  0  0  0  0
   28.7128    9.8806   12.2499 O   0  0  0  0  0  0  0  0  0  0  0  0
   29.1618   10.9225   13.1207 C   0  0  2  0  0  0  0  0  0  0  0  0
   25.4487    9.5633   14.3778 N   0  0  0  0  0  0  0  0  0  0  0  0
   30.0156   12.2120   11.2859 O   0  0  0  0  0  0  0  0  0  0  0  0
   30.3962   11.6045   12.5262 C   0  0  1  0  0  0  0  0  0  0  0  0
   28.2064    9.8859   15.1067 O   0  0  0  0  0  0  0  0  0  0  0  0
   30.9340   12.6763   13.4771 C   0  0  1  0  0  0  0  0  0  0  0  0
   28.5127    7.5626   15.1001 O   0  0  0  0  0  0  0  0  0  0  0  0
   31.2694   12.0660   14.8421 C   0  0  0  0  0  0  0  0  0  0  0  0
   26.7947    7.1167   18.3452 O   0  0  0  0  0  0  0  0  0  0  0  0
   30.0085   11.4319   15.4360 C   0  0  1  0  0  0  0  0  0  0  0  0
   24.6877    8.0809   16.7140 O   0  0  0  0  0  0  0  0  0  0  0  0
   29.4326   10.3500   14.5175 C   0  0  2  0  0  0  0  0  0  0  0  0
   27.7368    8.6447   14.5529 C   0  0  1  0  0  0  0  0  0  0  0  0
   28.3827    7.4100   16.5279 C   0  0  2  0  0  0  0  0  0  0  0  0
   29.2096    6.2187   17.0165 C   0  0  0  0  0  0  0  0  0  0  0  0
   26.9215    7.1763   16.9212 C   0  0  2  0  0  0  0  0  0  0  0  0
   26.0599    8.3288   16.4025 C   0  0  1  0  0  0  0  0  0  0  0  0
   26.2537    8.4455   14.8883 C   0  0  1  0  0  0  0  0  0  0  0  0
  5  4  1  6  0  0  0
  5  8  1  0  0  0  0
  5 16  1  0  0  0  0
  8  7  1  6  0  0  0
  8 10  1  0  0  0  0
 10  1  1  6  0  0  0
 10 12  1  0  0  0  0
 11 18  1  0  0  0  0
 12 14  1  0  0  0  0
 14  2  1  1  0  0  0
 14 16  1  0  0  0  0
 16  9  1  1  0  0  0
 17  9  1  1  0  0  0
 17 11  1  0  0  0  0
 17 22  1  0  0  0  0
 18 19  1  6  0  0  0
 18 20  1  0  0  0  0
 19  3  1  0  0  0  0
 20 13  1  1  0  0  0
 20 21  1  0  0  0  0
 21 15  1  6  0  0  0
 21 22  1  0  0  0  0
 22  6  1  1  0  0  0
M  END
>  <CHROM.1>
74.97110635,77.22194259,77.33380272,28.66446988,9.53646456,15.00420552,-0.99553231
0.27181304,2.29943391

>  <Name>
2fcx_lig

>  <RI>
1.21945e+07

>  <Rbt.Current_Directory>
/home/itssahil/PROJECTS/Mol_Feturizer/New_Systems/rnas/2fcx

>  <Rbt.Executable>
rbdock ($Id: //depot/dev/client3/rdock/2013.1/src/exe/rbdock.cxx#4 $)

>  <Rbt.Library>
libRbt.so (2013.1, Build901 2013/11/27)

>  <Rbt.Parameter_File>
/export/apps/rDock/src/rDock_2013.1_src/data/scripts/dock_solv.prm

>  <Rbt.Receptor>
prm/pocket_docking_3.prm

>  <SCORE>
-15.1583

>  <SCORE.INTER>
-14.2877

>  <SCORE.INTER.CONST>
1

>  <SCORE.INTER.POLAR>
-0.916515

>  <SCORE.INTER.ROT>
3

>  <SCORE.INTER.SOLV>
16.9568

>  <SCORE.INTER.VDW>
-17.7223

>  <SCORE.INTER.norm>
-0.649439

>  <SCORE.INTRA>
-0.870657

>  <SCORE.INTRA.DIHEDRAL>
-1.45656

>  <SCORE.INTRA.DIHEDRAL.0>
4.88619

>  <SCORE.INTRA.POLAR>
0

>  <SCORE.INTRA.POLAR.0>
0

>  <SCORE.INTRA.REPUL>
0

>  <SCORE.INTRA.REPUL.0>
0

>  <SCORE.INTRA.SOLV>
-0.310041

>  <SCORE.INTRA.SOLV.lig_0>
-73.8187

>  <SCORE.INTRA.VDW>
0.0126417

>  <SCORE.INTRA.VDW.0>
-1.32335

>  <SCORE.INTRA.norm>
-0.0395753

>  <SCORE.RESTR>
0

>  <SCORE.RESTR.CAVITY>
0

>  <SCORE.RESTR.norm>
0

>  <SCORE.SYSTEM>
0

>  <SCORE.SYSTEM.CONST>
0

>  <SCORE.SYSTEM.DIHEDRAL>
0

>  <SCORE.SYSTEM.SOLV>
0

>  <SCORE.SYSTEM.norm>
0

>  <SCORE.heavy>
22

>  <SCORE.norm>
-0.689014

>  <RMSD>
0.432

$$$$
2fcx_lig
 OpenBabel11021811433D
libRbt.so/2013.1/901 2013/11/27
 22 23  0  0  0  0  0  0  0  0999 V2000
   32.1409   13.3009   12.9235 N   0  0  0  0  0  0  0  0  0  0  0  0
   30.3410   10.8290   16.7608 N   0  0  0  0  0  0  0  0  0  0  0  0
   30.6655    6.5519   17.1076 N   0  0  0  0  0  0  0  0  0  0  0  0
   28.7329    9.8692   12.2694 O   0  0  0  0  0  0  0  0  0  0  0  0
   29.1770   10.9128   13.1407 C   0  0  2  0  0  0  0  0  0  0  0  0
   25.4861    9.5339   14.3822 N   0  0  0  0  0  0  0  0  0  0  0  0
   30.0126   12.2133   11.3053 O   0  0  0  0  0  0  0  0  0  0  0  0
   30.4033   11.6063   12.5426 C   0  0  1  0  0  0  0  0  0  0  0  0
   28.2384    9.8640   15.1282 O   0  0  0  0  0  0  0  0  0  0  0  0
   30.9362   12.6803   13.4937 C   0  0  1  0  0  0  0  0  0  0  0  0
   28.5507    7.5414   15.1244 O   0  0  0  0  0  0  0  0  0  0  0  0
   31.2823   12.0696   14.8560 C   0  0  0  0  0  0  0  0  0  0  0  0
   26.8135    7.0923   18.3589 O   0  0  0  0  0  0  0  0  0  0  0  0
   30.0290   11.4239   15.4536 C   0  0  1  0  0  0  0  0  0  0  0  0
   24.7143    8.0505   16.7141 O   0  0  0  0  0  0  0  0  0  0  0  0
   29.4582   10.3394   14.5350 C   0  0  2  0  0  0  0  0  0  0  0  0
   27.7755    8.6213   14.5720 C   0  0  1  0  0  0  0  0  0  0  0  0
   28.4122    7.3891   16.5515 C   0  0  2  0  0  0  0  0  0  0  0  0
   29.2390    6.2000   17.0457 C   0  0  0  0  0  0  0  0  0  0  0  0
   26.9492    7.1517   16.9357 C   0  0  2  0  0  0  0  0  0  0  0  0
   26.0878    8.3018   16.4111 C   0  0  1  0  0  0  0  0  0  0  0  0
   26.2908    8.4184   14.8981 C   0  0  1  0  0  0  0  0  0  0  0  0
  5  4  1  6  0  0  0
  5  8  1  0  0  0  0
  5 16  1  0  0  0  0
  8  7  1  6  0  0  0
  8 10  1  0  0  0  0
 10  1  1  6  0  0  0
 10 12  1  0  0  0  0
 11 18  1  0  0  0  0
 12 14  1  0  0  0  0
 14  2  1  1  0  0  0
 14 16  1  0  0  0  0
 16  9  1  1  0  0  0
 17  9  1  1  0  0  0
 17 11  1  0  0  0  0
 17 22  1  0  0  0  0
 18 19  1  6  0  0  0
 18 20  1  0  0  0  0
 19  3  1  0  0  0  0
 20 13  1  1  0  0  0
 20 21  1  0  0  0  0
 21 15  1  6  0  0  0
 21 22  1  0  0  0  0
 22  6  1  1  0  0  0
M  END
>  <CHROM.1>
74.87319524,77.94898789,76.82132481,28.68710689,9.52224109,15.02075211,-1.00057853
0.27710798,2.30158072

>  <Name>
2fcx_lig

>  <RI>
1.21945e+07

>  <Rbt.Current_Directory>
/home/itssahil/PROJECTS/Mol_Feturizer/New_Systems/rnas/2fcx

>  <Rbt.Executable>
rbdock ($Id: //depot/dev/client3/rdock/2013.1/src/exe/rbdock.cxx#4 $)

>  <Rbt.Library>
libRbt.so (2013.1, Build901 2013/11/27)

>  <Rbt.Parameter_File>
/export/apps/rDock/src/rDock_2013.1_src/data/scripts/dock_solv.prm

>  <Rbt.Receptor>
prm/pocket_docking_3.prm

>  <SCORE>
-15.141

>  <SCORE.INTER>
-14.2965

>  <SCORE.INTER.CONST>
1

>  <SCORE.INTER.POLAR>
-0.916515

>  <SCORE.INTER.ROT>
3

>  <SCORE.INTER.SOLV>
17.0238

>  <SCORE.INTER.VDW>
-17.7506

>  <SCORE.INTER.norm>
-0.649841

>  <SCORE.INTRA>
-0.844456

>  <SCORE.INTRA.DIHEDRAL>
-1.41542

>  <SCORE.INTRA.DIHEDRAL.0>
4.88619

>  <SCORE.INTRA.POLAR>
0

>  <SCORE.INTRA.POLAR.0>
0

>  <SCORE.INTRA.REPUL>
0

>  <SCORE.INTRA.REPUL.0>
0

>  <SCORE.INTRA.SOLV>
-0.304744

>  <SCORE.INTRA.SOLV.lig_0>
-73.8187

>  <SCORE.INTRA.VDW>
0.0156255

>  <SCORE.INTRA.VDW.0>
-1.32335

>  <SCORE.INTRA.norm>
-0.0383844

>  <SCORE.RESTR>
0

>  <SCORE.RESTR.CAVITY>
0

>  <SCORE.RESTR.norm>
0

>  <SCORE.SYSTEM>
0

>  <SCORE.SYSTEM.CONST>
0

>  <SCORE.SYSTEM.DIHEDRAL>
0

>  <SCORE.SYSTEM.SOLV>
0

>  <SCORE.SYSTEM.norm>
0

>  <SCORE.heavy>
22

>  <SCORE.norm>
-0.688226

>  <RMSD>
0.438

$$$$
2fcx_lig
 OpenBabel11021811433D
libRbt.so/2013.1/901 2013/11/27
 22 23  0  0  0  0  0  0  0  0999 V2000
   32.1829   13.1516   13.0058 N   0  0  0  0  0  0  0  0  0  0  0  0
   30.3368   10.6690   16.8141 N   0  0  0  0  0  0  0  0  0  0  0  0
   30.5346    6.4119   17.1330 N   0  0  0  0  0  0  0  0  0  0  0  0
   28.6396    9.8652   12.3249 O   0  0  0  0  0  0  0  0  0  0  0  0
   29.1333   10.8728   13.2117 C   0  0  2  0  0  0  0  0  0  0  0  0
   25.3997    9.5955   14.5085 N   0  0  0  0  0  0  0  0  0  0  0  0
   29.9955   12.1793   11.3930 O   0  0  0  0  0  0  0  0  0  0  0  0
   30.3778   11.5320   12.6124 C   0  0  1  0  0  0  0  0  0  0  0  0
   28.1796    9.8185   15.1891 O   0  0  0  0  0  0  0  0  0  0  0  0
   30.9625   12.5649   13.5785 C   0  0  1  0  0  0  0  0  0  0  0  0
   28.4170    7.4883   15.1158 O   0  0  0  0  0  0  0  0  0  0  0  0
   31.3015   11.9131   14.9233 C   0  0  0  0  0  0  0  0  0  0  0  0
   26.7506    7.0061   18.3826 O   0  0  0  0  0  0  0  0  0  0  0  0
   30.0319   11.3027   15.5235 C   0  0  1  0  0  0  0  0  0  0  0  0
   24.6413    8.0741   16.8203 O   0  0  0  0  0  0  0  0  0  0  0  0
   29.4094   10.2601   14.5902 C   0  0  2  0  0  0  0  0  0  0  0  0
   27.6628    8.6066   14.6129 C   0  0  1  0  0  0  0  0  0  0  0  0
   28.3106    7.3016   16.5415 C   0  0  2  0  0  0  0  0  0  0  0  0
   29.1114    6.0742   16.9819 C   0  0  0  0  0  0  0  0  0  0  0  0
   26.8511    7.0999   16.9583 C   0  0  2  0  0  0  0  0  0  0  0  0
   26.0139    8.2903   16.4874 C   0  0  1  0  0  0  0  0  0  0  0  0
   26.1813    8.4416   14.9732 C   0  0  1  0  0  0  0  0  0  0  0  0
  5  4  1  6  0  0  0
  5  8  1  0  0  0  0
  5 16  1  0  0  0  0
  8  7  1  6  0  0  0
  8 10  1  0  0  0  0
 10  1  1  6  0  0  0
 10 12  1  0  0  0  0
 11 18  1  0  0  0  0
 12 14  1  0  0  0  0
 14  2  1  1  0  0  0
 14 16  1  0  0  0  0
 16  9  1  1  0  0  0
 17  9  1  1  0  0  0
 17 11  1  0  0  0  0
 17 22  1  0  0  0  0
 18 19  1  6  0  0  0
 18 20  1  0  0  0  0
 19  3  1  0  0  0  0
 20 13  1  1  0  0  0
 20 21  1  0  0  0  0
 21 15  1  6  0  0  0
 21 22  1  0  0  0  0
 22  6  1  1  0  0  0
M  END
>  <CHROM.1>
74.83767456,77.03018700,81.96188596,28.62692517,9.45767665,15.07397842,-0.98869116
0.24332088,2.31779740

>  <Name>
2fcx_lig

>  <RI>
1.21945e+07

>  <Rbt.Current_Directory>
/home/itssahil/PROJECTS/Mol_Feturizer/New_Systems/rnas/2fcx

>  <Rbt.Executable>
rbdock ($Id: //depot/dev/client3/rdock/2013.1/src/exe/rbdock.cxx#4 $)

>  <Rbt.Library>
libRbt.so (2013.1, Build901 2013/11/27)

>  <Rbt.Parameter_File>
/export/apps/rDock/src/rDock_2013.1_src/data/scripts/dock_solv.prm

>  <Rbt.Receptor>
prm/pocket_docking_3.prm

>  <SCORE>
-15.134

>  <SCORE.INTER>
-14.522

>  <SCORE.INTER.CONST>
1

>  <SCORE.INTER.POLAR>
-0.916515

>  <SCORE.INTER.ROT>
3

>  <SCORE.INTER.SOLV>
17.4807

>  <SCORE.INTER.VDW>
-18.0532

>  <SCORE.INTER.norm>
-0.660093

>  <SCORE.INTRA>
-0.611962

>  <SCORE.INTRA.DIHEDRAL>
-0.95848

>  <SCORE.INTRA.DIHEDRAL.0>
4.88619

>  <SCORE.INTRA.POLAR>
0

>  <SCORE.INTRA.POLAR.0>
0

>  <SCORE.INTRA.REPUL>
0

>  <SCORE.INTRA.REPUL.0>
0

>  <SCORE.INTRA.SOLV>
-0.305989

>  <SCORE.INTRA.SOLV.lig_0>
-73.8187

>  <SCORE.INTRA.VDW>
0.0202725

>  <SCORE.INTRA.VDW.0>
-1.32335

>  <SCORE.INTRA.norm>
-0.0278165

>  <SCORE.RESTR>
0

>  <SCORE.RESTR.CAVITY>
0

>  <SCORE.RESTR.norm>
0

>  <SCORE.SYSTEM>
0

>  <SCORE.SYSTEM.CONST>
0

>  <SCORE.SYSTEM.DIHEDRAL>
0

>  <SCORE.SYSTEM.SOLV>
0

>  <SCORE.SYSTEM.norm>
0

>  <SCORE.heavy>
22

>  <SCORE.norm>
-0.687909

>  <RMSD>
0.479

$$$$
2fcx_lig
 OpenBabel11021811433D
libRbt.so/2013.1/901 2013/11/27
 22 23  0  0  0  0  0  0  0  0999 V2000
   32.1834   13.1713   13.0399 N   0  0  0  0  0  0  0  0  0  0  0  0
   30.3813   10.6554   16.8475 N   0  0  0  0  0  0  0  0  0  0  0  0
   30.5221    6.3308   17.1174 N   0  0  0  0  0  0  0  0  0  0  0  0
   28.6709    9.8512   12.3633 O   0  0  0  0  0  0  0  0  0  0  0  0
   29.1585   10.8604   13.2517 C   0  0  2  0  0  0  0  0  0  0  0  0
   25.4585    9.5922   14.4893 N   0  0  0  0  0  0  0  0  0  0  0  0
   29.9984   12.1826   11.4339 O   0  0  0  0  0  0  0  0  0  0  0  0
   30.3932   11.5347   12.6489 C   0  0  1  0  0  0  0  0  0  0  0  0
   28.2251    9.7889   15.2295 O   0  0  0  0  0  0  0  0  0  0  0  0
   30.9718   12.5699   13.6162 C   0  0  1  0  0  0  0  0  0  0  0  0
   28.4428    7.4566   15.1580 O   0  0  0  0  0  0  0  0  0  0  0  0
   31.3240   11.9165   14.9569 C   0  0  0  0  0  0  0  0  0  0  0  0
   26.7025    6.9858   18.3877 O   0  0  0  0  0  0  0  0  0  0  0  0
   30.0637   11.2908   15.5608 C   0  0  1  0  0  0  0  0  0  0  0  0
   24.6370    8.0750   16.7823 O   0  0  0  0  0  0  0  0  0  0  0  0
   29.4474   10.2453   14.6265 C   0  0  2  0  0  0  0  0  0  0  0  0
   27.7097    8.5824   14.6407 C   0  0  1  0  0  0  0  0  0  0  0  0
   28.3042    7.2692   16.5809 C   0  0  2  0  0  0  0  0  0  0  0  0
   29.0841    6.0340   17.0366 C   0  0  0  0  0  0  0  0  0  0  0  0
   26.8344    7.0805   16.9660 C   0  0  2  0  0  0  0  0  0  0  0  0
   26.0183    8.2790   16.4791 C   0  0  1  0  0  0  0  0  0  0  0  0
   26.2194    8.4306   14.9690 C   0  0  1  0  0  0  0  0  0  0  0  0
  5  4  1  6  0  0  0
  5  8  1  0  0  0  0
  5 16  1  0  0  0  0
  8  7  1  6  0  0  0
  8 10  1  0  0  0  0
 10  1  1  6  0  0  0
 10 12  1  0  0  0  0
 11 18  1  0  0  0  0
 12 14  1  0  0  0  0
 14  2  1  1  0  0  0
 14 16  1  0  0  0  0
 16  9  1  1  0  0  0
 17  9  1  1  0  0  0
 17 11  1  0  0  0  0
 17 22  1  0  0  0  0
 18 19  1  6  0  0  0
 18 20  1  0  0  0  0
 19  3  1  0  0  0  0
 20 13  1  1  0  0  0
 20 21  1  0  0  0  0
 21 15  1  6  0  0  0
 21 22  1  0  0  0  0
 22  6  1  1  0  0  0
M  END
>  <CHROM.1>
74.14816217,79.07029698,77.54874129,28.64139739,9.44232752,15.09659849,-0.98845653
0.24532962,2.32510694

>  <Name>
2fcx_lig

>  <RI>
1.21945e+07

>  <Rbt.Current_Directory>
/home/itssahil/PROJECTS/Mol_Feturizer/New_Systems/rnas/2fcx

>  <Rbt.Executable>
rbdock ($Id: //depot/dev/client3/rdock/2013.1/src/exe/rbdock.cxx#4 $)

>  <Rbt.Library>
libRbt.so (2013.1, Build901 2013/11/27)

>  <Rbt.Parameter_File>
/export/apps/rDock/src/rDock_2013.1_src/data/scripts/dock_solv.prm

>  <Rbt.Receptor>
prm/pocket_docking_3.prm

>  <SCORE>
-15.1613

>  <SCORE.INTER>
-14.4173

>  <SCORE.INTER.CONST>
1

>  <SCORE.INTER.POLAR>
-0.916515

>  <SCORE.INTER.ROT>
3

>  <SCORE.INTER.SOLV>
17.6342

>  <SCORE.INTER.VDW>
-18.0346

>  <SCORE.INTER.norm>
-0.655334

>  <SCORE.INTRA>
-0.743931

>  <SCORE.INTRA.DIHEDRAL>
-1.25708

>  <SCORE.INTRA.DIHEDRAL.0>
4.88619

>  <SCORE.INTRA.POLAR>
0

>  <SCORE.INTRA.POLAR.0>
0

>  <SCORE.INTRA.REPUL>
0

>  <SCORE.INTRA.REPUL.0>
0

>  <SCORE.INTRA.SOLV>
-0.340302

>  <SCORE.INTRA.SOLV.lig_0>
-73.8187

>  <SCORE.INTRA.VDW>
0.0547587

>  <SCORE.INTRA.VDW.0>
-1.32335

>  <SCORE.INTRA.norm>
-0.0338151

>  <SCORE.RESTR>
0

>  <SCORE.RESTR.CAVITY>
0

>  <SCORE.RESTR.norm>
0

>  <SCORE.SYSTEM>
0

>  <SCORE.SYSTEM.CONST>
0

>  <SCORE.SYSTEM.DIHEDRAL>
0

>  <SCORE.SYSTEM.SOLV>
0

>  <SCORE.SYSTEM.norm>
0

>  <SCORE.heavy>
22

>  <SCORE.norm>
-0.689149

>  <RMSD>
0.495

$$$$
2fcx_lig
 OpenBabel11021811433D
libRbt.so/2013.1/901 2013/11/27
 22 23  0  0  0  0  0  0  0  0999 V2000
   32.2551   13.2393   13.0664 N   0  0  0  0  0  0  0  0  0  0  0  0
   30.3075   10.7175   16.7976 N   0  0  0  0  0  0  0  0  0  0  0  0
   30.4784    6.4865   17.0818 N   0  0  0  0  0  0  0  0  0  0  0  0
   28.6989    9.9950   12.2621 O   0  0  0  0  0  0  0  0  0  0  0  0
   29.1823   10.9850   13.1741 C   0  0  2  0  0  0  0  0  0  0  0  0
   25.4164    9.6951   14.3611 N   0  0  0  0  0  0  0  0  0  0  0  0
   30.0941   12.3104   11.3935 O   0  0  0  0  0  0  0  0  0  0  0  0
   30.4448   11.6419   12.6110 C   0  0  1  0  0  0  0  0  0  0  0  0
   28.1779    9.9103   15.1150 O   0  0  0  0  0  0  0  0  0  0  0  0
   31.0178   12.6552   13.6045 C   0  0  1  0  0  0  0  0  0  0  0  0
   28.4112    7.5795   15.0453 O   0  0  0  0  0  0  0  0  0  0  0  0
   31.3226   11.9807   14.9463 C   0  0  0  0  0  0  0  0  0  0  0  0
   26.6581    7.0981   18.2665 O   0  0  0  0  0  0  0  0  0  0  0  0
   30.0354   11.3728   15.5104 C   0  0  1  0  0  0  0  0  0  0  0  0
   24.5935    8.1733   16.6504 O   0  0  0  0  0  0  0  0  0  0  0  0
   29.4239   10.3496   14.5488 C   0  0  2  0  0  0  0  0  0  0  0  0
   27.6734    8.7003   14.5240 C   0  0  1  0  0  0  0  0  0  0  0  0
   28.2668    7.3915   16.4676 C   0  0  2  0  0  0  0  0  0  0  0  0
   29.0526    6.1616   16.9275 C   0  0  0  0  0  0  0  0  0  0  0  0
   26.7964    7.1932   16.8455 C   0  0  2  0  0  0  0  0  0  0  0  0
   25.9749    8.3863   16.3541 C   0  0  1  0  0  0  0  0  0  0  0  0
   26.1825    8.5387   14.8449 C   0  0  1  0  0  0  0  0  0  0  0  0
  5  4  1  6  0  0  0
  5  8  1  0  0  0  0
  5 16  1  0  0  0  0
  8  7  1  6  0  0  0
  8 10  1  0  0  0  0
 10  1  1  6  0  0  0
 10 12  1  0  0  0  0
 11 18  1  0  0  0  0
 12 14  1  0  0  0  0
 14  2  1  1  0  0  0
 14 16  1  0  0  0  0
 16  9  1  1  0  0  0
 17  9  1  1  0  0  0
 17 11  1  0  0  0  0
 17 22  1  0  0  0  0
 18 19  1  6  0  0  0
 18 20  1  0  0  0  0
 19  3  1  0  0  0  0
 20 13  1  1  0  0  0
 20 21  1  0  0  0  0
 21 15  1  6  0  0  0
 21 22  1  0  0  0  0
 22  6  1  1  0  0  0
M  END
>  <CHROM.1>
75.73837340,77.05869606,80.44782515,28.62857706,9.55098178,15.01479333,-0.96686872
0.25655671,2.31874174

>  <Name>
2fcx_lig

>  <RI>
0

>  <Rbt.Current_Directory>
/home/itssahil/PROJECTS/Mol_Feturizer/New_Systems/rnas/2fcx

>  <Rbt.Executable>
rbdock ($Id: //depot/dev/client3/rdock/2013.1/src/exe/rbdock.cxx#4 $)

>  <Rbt.Library>
libRbt.so (2013.1, Build901 2013/11/27)

>  <Rbt.Parameter_File>
/export/apps/rDock/src/rDock_2013.1_src/data/scripts/dock_solv.prm

>  <Rbt.Receptor>
prm/pocket_docking_6.prm

>  <SCORE>
-15.2

>  <SCORE.INTER>
-14.5417

>  <SCORE.INTER.CONST>
1

>  <SCORE.INTER.POLAR>
-0.916515

>  <SCORE.INTER.ROT>
3

>  <SCORE.INTER.SOLV>
16.8847

>  <SCORE.INTER.VDW>
-17.8676

>  <SCORE.INTER.norm>
-0.660985

>  <SCORE.INTRA>
-0.658307

>  <SCORE.INTRA.DIHEDRAL>
-1.01907

>  <SCORE.INTRA.DIHEDRAL.0>
4.88619

>  <SCORE.INTRA.POLAR>
0

>  <SCORE.INTRA.POLAR.0>
0

>  <SCORE.INTRA.REPUL>
0

>  <SCORE.INTRA.REPUL.0>
0

>  <SCORE.INTRA.SOLV>
-0.232693

>  <SCORE.INTRA.SOLV.lig_0>
-73.8187

>  <SCORE.INTRA.VDW>
-0.0324266

>  <SCORE.INTRA.VDW.0>
-1.32335

>  <SCORE.INTRA.norm>
-0.029923

>  <SCORE.RESTR>
0

>  <SCORE.RESTR.CAVITY>
0

>  <SCORE.RESTR.norm>
0

>  <SCORE.SYSTEM>
0

>  <SCORE.SYSTEM.CONST>
0

>  <SCORE.SYSTEM.DIHEDRAL>
0

>  <SCORE.SYSTEM.SOLV>
0

>  <SCORE.SYSTEM.norm>
0

>  <SCORE.heavy>
22

>  <SCORE.norm>
-0.690908

>  <RMSD>
0.506

$$$$
2fcx_lig
 OpenBabel11021811433D
libRbt.so/2013.1/901 2013/11/27
 22 23  0  0  0  0  0  0  0  0999 V2000
   32.3237   13.2167   13.1093 N   0  0  0  0  0  0  0  0  0  0  0  0
   30.3011   10.7934   16.8658 N   0  0  0  0  0  0  0  0  0  0  0  0
   30.6586    6.5364   17.0847 N   0  0  0  0  0  0  0  0  0  0  0  0
   28.8606    9.8721   12.3099 O   0  0  0  0  0  0  0  0  0  0  0  0
   29.2937   10.9046   13.1997 C   0  0  2  0  0  0  0  0  0  0  0  0
   25.4932    9.5692   14.3916 N   0  0  0  0  0  0  0  0  0  0  0  0
   30.2389   12.1825   11.4020 O   0  0  0  0  0  0  0  0  0  0  0  0
   30.5614   11.5665   12.6544 C   0  0  1  0  0  0  0  0  0  0  0  0
   28.2456    9.8810   15.1452 O   0  0  0  0  0  0  0  0  0  0  0  0
   31.0806   12.6272   13.6278 C   0  0  1  0  0  0  0  0  0  0  0  0
   28.5495    7.5576   15.1165 O   0  0  0  0  0  0  0  0  0  0  0  0
   31.3532   12.0087   15.0031 C   0  0  0  0  0  0  0  0  0  0  0  0
   26.8058    7.0794   18.3433 O   0  0  0  0  0  0  0  0  0  0  0  0
   30.0598   11.3953   15.5468 C   0  0  1  0  0  0  0  0  0  0  0  0
   24.7125    8.0632   16.7060 O   0  0  0  0  0  0  0  0  0  0  0  0
   29.5011   10.3251   14.6044 C   0  0  2  0  0  0  0  0  0  0  0  0
   27.7790    8.6462   14.5748 C   0  0  1  0  0  0  0  0  0  0  0  0
   28.4082    7.3901   16.5416 C   0  0  2  0  0  0  0  0  0  0  0  0
   29.2300    6.1927   17.0240 C   0  0  0  0  0  0  0  0  0  0  0  0
   26.9438    7.1539   16.9210 C   0  0  2  0  0  0  0  0  0  0  0  0
   26.0874    8.3128   16.4078 C   0  0  1  0  0  0  0  0  0  0  0  0
   26.2931    8.4452   14.8965 C   0  0  1  0  0  0  0  0  0  0  0  0
  5  4  1  6  0  0  0
  5  8  1  0  0  0  0
  5 16  1  0  0  0  0
  8  7  1  6  0  0  0
  8 10  1  0  0  0  0
 10  1  1  6  0  0  0
 10 12  1  0  0  0  0
 11 18  1  0  0  0  0
 12 14  1  0  0  0  0
 14  2  1  1  0  0  0
 14 16  1  0  0  0  0
 16  9  1  1  0  0  0
 17  9  1  1  0  0  0
 17 11  1  0  0  0  0
 17 22  1  0  0  0  0
 18 19  1  6  0  0  0
 18 20  1  0  0  0  0
 19  3  1  0  0  0  0
 20 13  1  1  0  0  0
 20 21  1  0  0  0  0
 21 15  1  6  0  0  0
 21 22  1  0  0  0  0
 22  6  1  1  0  0  0
M  END
>  <CHROM.1>
75.20849934,75.11072354,76.50231323,28.73495778,9.51163102,15.06376645,-0.96515144
0.27520724,2.30112692

>  <Name>
2fcx_lig

>  <RI>
1.21945e+07

>  <Rbt.Current_Directory>
/home/itssahil/PROJECTS/Mol_Feturizer/New_Systems/rnas/2fcx

>  <Rbt.Executable>
rbdock ($Id: //depot/dev/client3/rdock/2013.1/src/exe/rbdock.cxx#4 $)

>  <Rbt.Library>
libRbt.so (2013.1, Build901 2013/11/27)

>  <Rbt.Parameter_File>
/export/apps/rDock/src/rDock_2013.1_src/data/scripts/dock_solv.prm

>  <Rbt.Receptor>
prm/pocket_docking_3.prm

>  <SCORE>
-15.2002

>  <SCORE.INTER>
-14.1321

>  <SCORE.INTER.CONST>
1

>  <SCORE.INTER.POLAR>
-0.916515

>  <SCORE.INTER.ROT>
3

>  <SCORE.INTER.SOLV>
17.3395

>  <SCORE.INTER.VDW>
-17.7462

>  <SCORE.INTER.norm>
-0.642368

>  <SCORE.INTRA>
-1.06808

>  <SCORE.INTRA.DIHEDRAL>
-1.81103

>  <SCORE.INTRA.DIHEDRAL.0>
4.88619

>  <SCORE.INTRA.POLAR>
0

>  <SCORE.INTRA.POLAR.0>
0

>  <SCORE.INTRA.REPUL>
0

>  <SCORE.INTRA.REPUL.0>
0

>  <SCORE.INTRA.SOLV>
-0.341959

>  <SCORE.INTRA.SOLV.lig_0>
-73.8187

>  <SCORE.INTRA.VDW>
0.0084173

>  <SCORE.INTRA.VDW.0>
-1.32335

>  <SCORE.INTRA.norm>
-0.0485491

>  <SCORE.RESTR>
0

>  <SCORE.RESTR.CAVITY>
0

>  <SCORE.RESTR.norm>
0

>  <SCORE.SYSTEM>
0

>  <SCORE.SYSTEM.CONST>
0

>  <SCORE.SYSTEM.DIHEDRAL>
0

>  <SCORE.SYSTEM.SOLV>
0

>  <SCORE.SYSTEM.norm>
0

>  <SCORE.heavy>
22

>  <SCORE.norm>
-0.690917

>  <RMSD>
0.542

$$$$
2fcx_lig
 OpenBabel11021811433D
libRbt.so/2013.1/901 2013/11/27
 22 23  0  0  0  0  0  0  0  0999 V2000
   31.2600   13.1563   11.6655 N   0  0  0  0  0  0  0  0  0  0  0  0
   30.0145   11.4151   16.0804 N   0  0  0  0  0  0  0  0  0  0  0  0
   30.6893    6.8278   17.0642 N   0  0  0  0  0  0  0  0  0  0  0  0
   28.4150    9.2094   12.0485 O   0  0  0  0  0  0  0  0  0  0  0  0
   28.7202   10.4808   12.6280 C   0  0  2  0  0  0  0  0  0  0  0  0
   25.2702    9.2741   14.2851 N   0  0  0  0  0  0  0  0  0  0  0  0
   29.2723   11.4236   10.4916 O   0  0  0  0  0  0  0  0  0  0  0  0
   29.7990   11.1858   11.8023 C   0  0  1  0  0  0  0  0  0  0  0  0
   28.0323    9.8006   14.8630 O   0  0  0  0  0  0  0  0  0  0  0  0
   30.1900   12.5180   12.4462 C   0  0  1  0  0  0  0  0  0  0  0  0
   28.4503    7.5080   15.1101 O   0  0  0  0  0  0  0  0  0  0  0  0
   30.6778   12.2994   13.8824 C   0  0  0  0  0  0  0  0  0  0  0  0
   26.8673    7.3662   18.4501 O   0  0  0  0  0  0  0  0  0  0  0  0
   29.5649   11.6363   14.6988 C   0  0  1  0  0  0  0  0  0  0  0  0
   24.6618    8.0407   16.8036 O   0  0  0  0  0  0  0  0  0  0  0  0
   29.1393   10.2962   14.0916 C   0  0  2  0  0  0  0  0  0  0  0  0
   27.6048    8.4839   14.4738 C   0  0  1  0  0  0  0  0  0  0  0  0
   28.3765    7.5165   16.5500 C   0  0  2  0  0  0  0  0  0  0  0  0
   29.2762    6.4276   17.1386 C   0  0  0  0  0  0  0  0  0  0  0  0
   26.9426    7.2658   17.0246 C   0  0  2  0  0  0  0  0  0  0  0  0
   26.0091    8.3111   16.4119 C   0  0  1  0  0  0  0  0  0  0  0  0
   26.1453    8.2597   14.8879 C   0  0  1  0  0  0  0  0  0  0  0  0
  5  4  1  6  0  0  0
  5  8  1  0  0  0  0
  5 16  1  0  0  0  0
  8  7  1  6  0  0  0
  8 10  1  0  0  0  0
 10  1  1  6  0  0  0
 10 12  1  0  0  0  0
 11 18  1  0  0  0  0
 12 14  1  0  0  0  0
 14  2  1  1  0  0  0
 14 16  1  0  0  0  0
 16  9  1  1  0  0  0
 17  9  1  1  0  0  0
 17 11  1  0  0  0  0
 17 22  1  0  0  0  0
 18 19  1  1  0  0  0
 18 20  1  0  0  0  0
 19  3  1  0  0  0  0
 20 13  1  1  0  0  0
 20 21  1  0  0  0  0
 21 15  1  6  0  0  0
 21 22  1  0  0  0  0
 22  6  1  6  0  0  0
M  END
>  <CHROM.1>
64.81092836,82.58975956,75.39222779,28.40093633,9.46008107,14.68098554,-1.11766065
0.28393540,2.19363376

>  <Name>
2fcx_lig

>  <RI>
0

>  <Rbt.Current_Directory>
/home/itssahil/PROJECTS/Mol_Feturizer/New_Systems/rnas/2fcx

>  <Rbt.Executable>
rbdock ($Id: //depot/dev/client3/rdock/2013.1/src/exe/rbdock.cxx#4 $)

>  <Rbt.Library>
libRbt.so (2013.1, Build901 2013/11/27)

>  <Rbt.Parameter_File>
/export/apps/rDock/src/rDock_2013.1_src/data/scripts/dock_solv.prm

>  <Rbt.Receptor>
prm/pocket_docking_2.prm

>  <SCORE>
-14.4557

>  <SCORE.INTER>
-14.0944

>  <SCORE.INTER.CONST>
1

>  <SCORE.INTER.POLAR>
-1.15591

>  <SCORE.INTER.ROT>
3

>  <SCORE.INTER.SOLV>
17.3048

>  <SCORE.INTER.VDW>
-16.9115

>  <SCORE.INTER.norm>
-0.640653

>  <SCORE.INTRA>
-0.361336

>  <SCORE.INTRA.DIHEDRAL>
-1.72438

>  <SCORE.INTRA.DIHEDRAL.0>
4.88619

>  <SCORE.INTRA.POLAR>
0

>  <SCORE.INTRA.POLAR.0>
0

>  <SCORE.INTRA.REPUL>
0

>  <SCORE.INTRA.REPUL.0>
0

>  <SCORE.INTRA.SOLV>
-0.652576

>  <SCORE.INTRA.SOLV.lig_0>
-73.8187

>  <SCORE.INTRA.VDW>
0.82714

>  <SCORE.INTRA.VDW.0>
-1.32335

>  <SCORE.INTRA.norm>
-0.0164244

>  <SCORE.RESTR>
0

>  <SCORE.RESTR.CAVITY>
0

>  <SCORE.RESTR.norm>
0

>  <SCORE.SYSTEM>
0

>  <SCORE.SYSTEM.CONST>
0

>  <SCORE.SYSTEM.DIHEDRAL>
0

>  <SCORE.SYSTEM.SOLV>
0

>  <SCORE.SYSTEM.norm>
0

>  <SCORE.heavy>
22

>  <SCORE.norm>
-0.657077

>  <RMSD>
0.558

$$$$
2fcx_lig
 OpenBabel11021811433D
libRbt.so/2013.1/901 2013/11/27
 22 23  0  0  0  0  0  0  0  0999 V2000
   31.2506   13.1476   11.6519 N   0  0  0  0  0  0  0  0  0  0  0  0
   30.0121   11.4254   16.0762 N   0  0  0  0  0  0  0  0  0  0  0  0
   30.6769    6.8196   17.0490 N   0  0  0  0  0  0  0  0  0  0  0  0
   28.3965    9.2094   12.0563 O   0  0  0  0  0  0  0  0  0  0  0  0
   28.7065   10.4821   12.6305 C   0  0  2  0  0  0  0  0  0  0  0  0
   25.2535    9.3029   14.3096 N   0  0  0  0  0  0  0  0  0  0  0  0
   29.2555   11.4158   10.4893 O   0  0  0  0  0  0  0  0  0  0  0  0
   29.7849   11.1813   11.7996 C   0  0  1  0  0  0  0  0  0  0  0  0
   28.0226    9.8116   14.8697 O   0  0  0  0  0  0  0  0  0  0  0  0
   30.1811   12.5148   12.4376 C   0  0  1  0  0  0  0  0  0  0  0  0
   28.4288    7.5160   15.1080 O   0  0  0  0  0  0  0  0  0  0  0  0
   30.6720   12.3001   13.8733 C   0  0  0  0  0  0  0  0  0  0  0  0
   26.8682    7.3749   18.4585 O   0  0  0  0  0  0  0  0  0  0  0  0
   29.5595   11.6428   14.6949 C   0  0  1  0  0  0  0  0  0  0  0  0
   24.6553    8.0666   16.8291 O   0  0  0  0  0  0  0  0  0  0  0  0
   29.1289   10.3016   14.0937 C   0  0  2  0  0  0  0  0  0  0  0  0
   27.5846    8.4986   14.4801 C   0  0  1  0  0  0  0  0  0  0  0  0
   28.3650    7.5212   16.5484 C   0  0  2  0  0  0  0  0  0  0  0  0
   29.2624    6.4255   17.1280 C   0  0  0  0  0  0  0  0  0  0  0  0
   26.9330    7.2777   17.0324 C   0  0  2  0  0  0  0  0  0  0  0  0
   26.0014    8.3301   16.4288 C   0  0  1  0  0  0  0  0  0  0  0  0
   26.1268    8.2818   14.9037 C   0  0  1  0  0  0  0  0  0  0  0  0
  5  4  1  6  0  0  0
  5  8  1  0  0  0  0
  5 16  1  0  0  0  0
  8  7  1  6  0  0  0
  8 10  1  0  0  0  0
 10  1  1  6  0  0  0
 10 12  1  0  0  0  0
 11 18  1  0  0  0  0
 12 14  1  0  0  0  0
 14  2  1  1  0  0  0
 14 16  1  0  0  0  0
 16  9  1  1  0  0  0
 17  9  1  1  0  0  0
 17 11  1  0  0  0  0
 17 22  1  0  0  0  0
 18 19  1  1  0  0  0
 18 20  1  0  0  0  0
 19  3  1  0  0  0  0
 20 13  1  1  0  0  0
 20 21  1  0  0  0  0
 21 15  1  6  0  0  0
 21 22  1  0  0  0  0
 22  6  1  6  0  0  0
M  END
>  <CHROM.1>
64.39999250,82.47140864,75.58503943,28.38945884,9.46665487,14.68345523,-1.11872210
0.27492605,2.19513213

>  <Name>
2fcx_lig

>  <RI>
0

>  <Rbt.Current_Directory>
/home/itssahil/PROJECTS/Mol_Feturizer/New_Systems/rnas/2fcx

>  <Rbt.Executable>
rbdock ($Id: //depot/dev/client3/rdock/2013.1/src/exe/rbdock.cxx#4 $)

>  <Rbt.Library>
libRbt.so (2013.1, Build901 2013/11/27)

>  <Rbt.Parameter_File>
/export/apps/rDock/src/rDock_2013.1_src/data/scripts/dock_solv.prm

>  <Rbt.Receptor>
prm/pocket_docking_2.prm

>  <SCORE>
-14.4927

>  <SCORE.INTER>
-14.1551

>  <SCORE.INTER.CONST>
1

>  <SCORE.INTER.POLAR>
-1.16493

>  <SCORE.INTER.ROT>
3

>  <SCORE.INTER.SOLV>
17.2894

>  <SCORE.INTER.VDW>
-16.9168

>  <SCORE.INTER.norm>
-0.643413

>  <SCORE.INTRA>
-0.337583

>  <SCORE.INTRA.DIHEDRAL>
-1.74429

>  <SCORE.INTRA.DIHEDRAL.0>
4.88619

>  <SCORE.INTRA.POLAR>
0

>  <SCORE.INTRA.POLAR.0>
0

>  <SCORE.INTRA.REPUL>
0

>  <SCORE.INTRA.REPUL.0>
0

>  <SCORE.INTRA.SOLV>
-0.667331

>  <SCORE.INTRA.SOLV.lig_0>
-73.8187

>  <SCORE.INTRA.VDW>
0.868226

>  <SCORE.INTRA.VDW.0>
-1.32335

>  <SCORE.INTRA.norm>
-0.0153447

>  <SCORE.RESTR>
0

>  <SCORE.RESTR.CAVITY>
0

>  <SCORE.RESTR.norm>
0

>  <SCORE.SYSTEM>
0

>  <SCORE.SYSTEM.CONST>
0

>  <SCORE.SYSTEM.DIHEDRAL>
0

>  <SCORE.SYSTEM.SOLV>
0

>  <SCORE.SYSTEM.norm>
0

>  <SCORE.heavy>
22

>  <SCORE.norm>
-0.658758

>  <RMSD>
0.559

$$$$
2fcx_lig
 OpenBabel11021811433D
libRbt.so/2013.1/901 2013/11/27
 22 23  0  0  0  0  0  0  0  0999 V2000
   31.2501   13.1319   11.6499 N   0  0  0  0  0  0  0  0  0  0  0  0
   30.0168   11.4085   16.0752 N   0  0  0  0  0  0  0  0  0  0  0  0
   30.6523    6.7979   17.0687 N   0  0  0  0  0  0  0  0  0  0  0  0
   28.3921    9.1967   12.0567 O   0  0  0  0  0  0  0  0  0  0  0  0
   28.7045   10.4687   12.6311 C   0  0  2  0  0  0  0  0  0  0  0  0
   25.2564    9.2979   14.2931 N   0  0  0  0  0  0  0  0  0  0  0  0
   29.2511   11.4031   10.4895 O   0  0  0  0  0  0  0  0  0  0  0  0
   29.7823   11.1672   11.7988 C   0  0  1  0  0  0  0  0  0  0  0  0
   28.0235    9.7978   14.8710 O   0  0  0  0  0  0  0  0  0  0  0  0
   30.1811   12.4999   12.4369 C   0  0  1  0  0  0  0  0  0  0  0  0
   28.4196    7.5012   15.1173 O   0  0  0  0  0  0  0  0  0  0  0  0
   30.6741   12.2838   13.8717 C   0  0  0  0  0  0  0  0  0  0  0  0
   26.8355    7.3736   18.4574 O   0  0  0  0  0  0  0  0  0  0  0  0
   29.5622   11.6273   14.6948 C   0  0  1  0  0  0  0  0  0  0  0  0
   24.6364    8.0696   16.8112 O   0  0  0  0  0  0  0  0  0  0  0  0
   29.1290   10.2869   14.0935 C   0  0  2  0  0  0  0  0  0  0  0  0
   27.5834    8.4854   14.4814 C   0  0  1  0  0  0  0  0  0  0  0  0
   28.3459    7.5100   16.5573 C   0  0  2  0  0  0  0  0  0  0  0  0
   29.2353    6.4124   17.1455 C   0  0  0  0  0  0  0  0  0  0  0  0
   26.9097    7.2728   17.0319 C   0  0  2  0  0  0  0  0  0  0  0  0
   25.9862    8.3272   16.4196 C   0  0  1  0  0  0  0  0  0  0  0  0
   26.1218    8.2750   14.8955 C   0  0  1  0  0  0  0  0  0  0  0  0
  5  4  1  6  0  0  0
  5  8  1  0  0  0  0
  5 16  1  0  0  0  0
  8  7  1  6  0  0  0
  8 10  1  0  0  0  0
 10  1  1  6  0  0  0
 10 12  1  0  0  0  0
 11 18  1  0  0  0  0
 12 14  1  0  0  0  0
 14  2  1  1  0  0  0
 14 16  1  0  0  0  0
 16  9  1  1  0  0  0
 17  9  1  1  0  0  0
 17 11  1  0  0  0  0
 17 22  1  0  0  0  0
 18 19  1  1  0  0  0
 18 20  1  0  0  0  0
 19  3  1  0  0  0  0
 20 13  1  1  0  0  0
 20 21  1  0  0  0  0
 21 15  1  6  0  0  0
 21 22  1  0  0  0  0
 22  6  1  6  0  0  0
M  END
>  <CHROM.1>
64.40243673,83.00443694,75.27829352,28.38122900,9.45525564,14.68338731,-1.11664416
0.27596478,2.19313001

>  <Name>
2fcx_lig

>  <RI>
0

>  <Rbt.Current_Directory>
/home/itssahil/PROJECTS/Mol_Feturizer/New_Systems/rnas/2fcx

>  <Rbt.Executable>
rbdock ($Id: //depot/dev/client3/rdock/2013.1/src/exe/rbdock.cxx#4 $)

>  <Rbt.Library>
libRbt.so (2013.1, Build901 2013/11/27)

>  <Rbt.Parameter_File>
/export/apps/rDock/src/rDock_2013.1_src/data/scripts/dock_solv.prm

>  <Rbt.Receptor>
prm/pocket_docking_2.prm

>  <SCORE>
-14.5281

>  <SCORE.INTER>
-14.2285

>  <SCORE.INTER.CONST>
1

>  <SCORE.INTER.POLAR>
-1.16707

>  <SCORE.INTER.ROT>
3

>  <SCORE.INTER.SOLV>
17.3226

>  <SCORE.INTER.VDW>
-16.9696

>  <SCORE.INTER.norm>
-0.646751

>  <SCORE.INTRA>
-0.299576

>  <SCORE.INTRA.DIHEDRAL>
-1.68138

>  <SCORE.INTRA.DIHEDRAL.0>
4.88619

>  <SCORE.INTRA.POLAR>
0

>  <SCORE.INTRA.POLAR.0>
0

>  <SCORE.INTRA.REPUL>
0

>  <SCORE.INTRA.REPUL.0>
0

>  <SCORE.INTRA.SOLV>
-0.649086

>  <SCORE.INTRA.SOLV.lig_0>
-73.8187

>  <SCORE.INTRA.VDW>
0.865659

>  <SCORE.INTRA.VDW.0>
-1.32335

>  <SCORE.INTRA.norm>
-0.0136171

>  <SCORE.RESTR>
0

>  <SCORE.RESTR.CAVITY>
0

>  <SCORE.RESTR.norm>
0

>  <SCORE.SYSTEM>
0

>  <SCORE.SYSTEM.CONST>
0

>  <SCORE.SYSTEM.DIHEDRAL>
0

>  <SCORE.SYSTEM.SOLV>
0

>  <SCORE.SYSTEM.norm>
0

>  <SCORE.heavy>
22

>  <SCORE.norm>
-0.660369

>  <RMSD>
0.560

$$$$
2fcx_lig
 OpenBabel11021811433D
libRbt.so/2013.1/901 2013/11/27
 22 23  0  0  0  0  0  0  0  0999 V2000
   31.2571   13.1373   11.6615 N   0  0  0  0  0  0  0  0  0  0  0  0
   29.9985   11.4093   16.0780 N   0  0  0  0  0  0  0  0  0  0  0  0
   30.6652    6.8240   17.0374 N   0  0  0  0  0  0  0  0  0  0  0  0
   28.3779    9.2156   12.0479 O   0  0  0  0  0  0  0  0  0  0  0  0
   28.6945   10.4846   12.6266 C   0  0  2  0  0  0  0  0  0  0  0  0
   25.2311    9.3006   14.3118 N   0  0  0  0  0  0  0  0  0  0  0  0
   29.2538   11.4214   10.4894 O   0  0  0  0  0  0  0  0  0  0  0  0
   29.7790   11.1797   11.8001 C   0  0  1  0  0  0  0  0  0  0  0  0
   28.0017    9.8116   14.8623 O   0  0  0  0  0  0  0  0  0  0  0  0
   30.1820   12.5088   12.4430 C   0  0  1  0  0  0  0  0  0  0  0  0
   28.4103    7.5163   15.1005 O   0  0  0  0  0  0  0  0  0  0  0  0
   30.6685   12.2867   13.8791 C   0  0  0  0  0  0  0  0  0  0  0  0
   26.8611    7.3760   18.4563 O   0  0  0  0  0  0  0  0  0  0  0  0
   29.5502   11.6338   14.6964 C   0  0  1  0  0  0  0  0  0  0  0  0
   24.6423    8.0652   16.8340 O   0  0  0  0  0  0  0  0  0  0  0  0
   29.1126   10.2971   14.0902 C   0  0  2  0  0  0  0  0  0  0  0  0
   27.5634    8.4980   14.4749 C   0  0  1  0  0  0  0  0  0  0  0  0
   28.3514    7.5223   16.5411 C   0  0  2  0  0  0  0  0  0  0  0  0
   29.2515    6.4275   17.1183 C   0  0  0  0  0  0  0  0  0  0  0  0
   26.9211    7.2780   17.0300 C   0  0  2  0  0  0  0  0  0  0  0  0
   25.9868    8.3294   16.4290 C   0  0  1  0  0  0  0  0  0  0  0  0
   26.1071    8.2805   14.9035 C   0  0  1  0  0  0  0  0  0  0  0  0
  5  4  1  6  0  0  0
  5  8  1  0  0  0  0
  5 16  1  0  0  0  0
  8  7  1  6  0  0  0
  8 10  1  0  0  0  0
 10  1  1  6  0  0  0
 10 12  1  0  0  0  0
 11 18  1  0  0  0  0
 12 14  1  0  0  0  0
 14  2  1  1  0  0  0
 14 16  1  0  0  0  0
 16  9  1  1  0  0  0
 17  9  1  1  0  0  0
 17 11  1  0  0  0  0
 17 22  1  0  0  0  0
 18 19  1  1  0  0  0
 18 20  1  0  0  0  0
 19  3  1  0  0  0  0
 20 13  1  1  0  0  0
 20 21  1  0  0  0  0
 21 15  1  6  0  0  0
 21 22  1  0  0  0  0
 22  6  1  6  0  0  0
M  END
>  <CHROM.1>
64.86989413,81.95259148,75.72637305,28.37763438,9.46481058,14.68167419,-1.11607706
0.27374598,2.19442739

>  <Name>
2fcx_lig

>  <RI>
0

>  <Rbt.Current_Directory>
/home/itssahil/PROJECTS/Mol_Feturizer/New_Systems/rnas/2fcx

>  <Rbt.Executable>
rbdock ($Id: //depot/dev/client3/rdock/2013.1/src/exe/rbdock.cxx#4 $)

>  <Rbt.Library>
libRbt.so (2013.1, Build901 2013/11/27)

>  <Rbt.Parameter_File>
/export/apps/rDock/src/rDock_2013.1_src/data/scripts/dock_solv.prm

>  <Rbt.Receptor>
prm/pocket_docking_2.prm

>  <SCORE>
-14.4748

>  <SCORE.INTER>
-14.0641

>  <SCORE.INTER.CONST>
1

>  <SCORE.INTER.POLAR>
-1.16262

>  <SCORE.INTER.ROT>
3

>  <SCORE.INTER.SOLV>
17.3119

>  <SCORE.INTER.VDW>
-16.8713

>  <SCORE.INTER.norm>
-0.639279

>  <SCORE.INTRA>
-0.41068

>  <SCORE.INTRA.DIHEDRAL>
-1.79855

>  <SCORE.INTRA.DIHEDRAL.0>
4.88619

>  <SCORE.INTRA.POLAR>
0

>  <SCORE.INTRA.POLAR.0>
0

>  <SCORE.INTRA.REPUL>
0

>  <SCORE.INTRA.REPUL.0>
0

>  <SCORE.INTRA.SOLV>
-0.67119

>  <SCORE.INTRA.SOLV.lig_0>
-73.8187

>  <SCORE.INTRA.VDW>
0.824191

>  <SCORE.INTRA.VDW.0>
-1.32335

>  <SCORE.INTRA.norm>
-0.0186673

>  <SCORE.RESTR>
0

>  <SCORE.RESTR.CAVITY>
0

>  <SCORE.RESTR.norm>
0

>  <SCORE.SYSTEM>
0

>  <SCORE.SYSTEM.CONST>
0

>  <SCORE.SYSTEM.DIHEDRAL>
0

>  <SCORE.SYSTEM.SOLV>
0

>  <SCORE.SYSTEM.norm>
0

>  <SCORE.heavy>
22

>  <SCORE.norm>
-0.657947

>  <RMSD>
0.561

$$$$
2fcx_lig
 OpenBabel11021811433D
libRbt.so/2013.1/901 2013/11/27
 22 23  0  0  0  0  0  0  0  0999 V2000
   31.2272   13.1995   11.6363 N   0  0  0  0  0  0  0  0  0  0  0  0
   30.0114   11.4631   16.0614 N   0  0  0  0  0  0  0  0  0  0  0  0
   30.7142    6.8758   17.0601 N   0  0  0  0  0  0  0  0  0  0  0  0
   28.4108    9.2344   12.0425 O   0  0  0  0  0  0  0  0  0  0  0  0
   28.7097   10.5096   12.6170 C   0  0  2  0  0  0  0  0  0  0  0  0
   25.2720    9.2953   14.2939 N   0  0  0  0  0  0  0  0  0  0  0  0
   29.2467   11.4497   10.4755 O   0  0  0  0  0  0  0  0  0  0  0  0
   29.7802   11.2195   11.7849 C   0  0  1  0  0  0  0  0  0  0  0  0
   28.0354    9.8315   14.8568 O   0  0  0  0  0  0  0  0  0  0  0  0
   30.1648   12.5562   12.4231 C   0  0  1  0  0  0  0  0  0  0  0  0
   28.4634    7.5402   15.0988 O   0  0  0  0  0  0  0  0  0  0  0  0
   30.6598   12.3453   13.8580 C   0  0  0  0  0  0  0  0  0  0  0  0
   26.9000    7.3887   18.4476 O   0  0  0  0  0  0  0  0  0  0  0  0
   29.5548   11.6771   14.6809 C   0  0  1  0  0  0  0  0  0  0  0  0
   24.6826    8.0568   16.8144 O   0  0  0  0  0  0  0  0  0  0  0  0
   29.1359   10.3323   14.0795 C   0  0  2  0  0  0  0  0  0  0  0  0
   27.6106    8.5137   14.4684 C   0  0  1  0  0  0  0  0  0  0  0  0
   28.3978    7.5468   16.5391 C   0  0  2  0  0  0  0  0  0  0  0  0
   29.3049    6.4605   17.1213 C   0  0  0  0  0  0  0  0  0  0  0  0
   26.9675    7.2901   17.0216 C   0  0  2  0  0  0  0  0  0  0  0  0
   26.0266    8.3327   16.4154 C   0  0  1  0  0  0  0  0  0  0  0  0
   26.1544    8.2835   14.8906 C   0  0  1  0  0  0  0  0  0  0  0  0
  5  4  1  6  0  0  0
  5  8  1  0  0  0  0
  5 16  1  0  0  0  0
  8  7  1  6  0  0  0
  8 10  1  0  0  0  0
 10  1  1  6  0  0  0
 10 12  1  0  0  0  0
 11 18  1  0  0  0  0
 12 14  1  0  0  0  0
 14  2  1  1  0  0  0
 14 16  1  0  0  0  0
 16  9  1  1  0  0  0
 17  9  1  1  0  0  0
 17 11  1  0  0  0  0
 17 22  1  0  0  0  0
 18 19  1  1  0  0  0
 18 20  1  0  0  0  0
 19  3  1  0  0  0  0
 20 13  1  1  0  0  0
 20 21  1  0  0  0  0
 21 15  1  6  0  0  0
 21 22  1  0  0  0  0
 22  6  1  6  0  0  0
M  END
>  <CHROM.1>
64.49388074,82.60728145,76.34433998,28.40350872,9.49165295,14.67156209,-1.12503205
0.28512484,2.19496471

>  <Name>
2fcx_lig

>  <RI>
0

>  <Rbt.Current_Directory>
/home/itssahil/PROJECTS/Mol_Feturizer/New_Systems/rnas/2fcx

>  <Rbt.Executable>
rbdock ($Id: //depot/dev/client3/rdock/2013.1/src/exe/rbdock.cxx#4 $)

>  <Rbt.Library>
libRbt.so (2013.1, Build901 2013/11/27)

>  <Rbt.Parameter_File>
/export/apps/rDock/src/rDock_2013.1_src/data/scripts/dock_solv.prm

>  <Rbt.Receptor>
prm/pocket_docking_2.prm

>  <SCORE>
-14.4095

>  <SCORE.INTER>
-14.1164

>  <SCORE.INTER.CONST>
1

>  <SCORE.INTER.POLAR>
-1.15375

>  <SCORE.INTER.ROT>
3

>  <SCORE.INTER.SOLV>
17.0587

>  <SCORE.INTER.VDW>
-16.8513

>  <SCORE.INTER.norm>
-0.641654

>  <SCORE.INTRA>
-0.293062

>  <SCORE.INTRA.DIHEDRAL>
-1.63915

>  <SCORE.INTRA.DIHEDRAL.0>
4.88619

>  <SCORE.INTRA.POLAR>
0

>  <SCORE.INTRA.POLAR.0>
0

>  <SCORE.INTRA.REPUL>
0

>  <SCORE.INTRA.REPUL.0>
0

>  <SCORE.INTRA.SOLV>
-0.663022

>  <SCORE.INTRA.SOLV.lig_0>
-73.8187

>  <SCORE.INTRA.VDW>
0.858022

>  <SCORE.INTRA.VDW.0>
-1.32335

>  <SCORE.INTRA.norm>
-0.013321

>  <SCORE.RESTR>
0

>  <SCORE.RESTR.CAVITY>
0

>  <SCORE.RESTR.norm>
0

>  <SCORE.SYSTEM>
0

>  <SCORE.SYSTEM.CONST>
0

>  <SCORE.SYSTEM.DIHEDRAL>
0

>  <SCORE.SYSTEM.SOLV>
0

>  <SCORE.SYSTEM.norm>
0

>  <SCORE.heavy>
22

>  <SCORE.norm>
-0.654975

>  <RMSD>
0.564

$$$$
2fcx_lig
 OpenBabel11021811433D
libRbt.so/2013.1/901 2013/11/27
 22 23  0  0  0  0  0  0  0  0999 V2000
   31.2384   13.1320   11.6253 N   0  0  0  0  0  0  0  0  0  0  0  0
   30.0298   11.4025   16.0551 N   0  0  0  0  0  0  0  0  0  0  0  0
   30.6613    6.8143   17.0829 N   0  0  0  0  0  0  0  0  0  0  0  0
   28.3846    9.1949   12.0427 O   0  0  0  0  0  0  0  0  0  0  0  0
   28.6994   10.4663   12.6170 C   0  0  2  0  0  0  0  0  0  0  0  0
   25.2679    9.2786   14.2743 N   0  0  0  0  0  0  0  0  0  0  0  0
   29.2340   11.4036   10.4736 O   0  0  0  0  0  0  0  0  0  0  0  0
   29.7724   11.1664   11.7797 C   0  0  1  0  0  0  0  0  0  0  0  0
   28.0309    9.7923   14.8597 O   0  0  0  0  0  0  0  0  0  0  0  0
   30.1739   12.4985   12.4174 C   0  0  1  0  0  0  0  0  0  0  0  0
   28.4336    7.4990   15.1253 O   0  0  0  0  0  0  0  0  0  0  0  0
   30.6748   12.2809   13.8492 C   0  0  0  0  0  0  0  0  0  0  0  0
   26.8363    7.3916   18.4597 O   0  0  0  0  0  0  0  0  0  0  0  0
   29.5676   11.6228   14.6774 C   0  0  1  0  0  0  0  0  0  0  0  0
   24.6417    8.0675   16.7992 O   0  0  0  0  0  0  0  0  0  0  0  0
   29.1319   10.2829   14.0768 C   0  0  2  0  0  0  0  0  0  0  0  0
   27.5967    8.4755   14.4784 C   0  0  1  0  0  0  0  0  0  0  0  0
   28.3541    7.5186   16.5648 C   0  0  2  0  0  0  0  0  0  0  0  0
   29.2446    6.4285   17.1651 C   0  0  0  0  0  0  0  0  0  0  0  0
   26.9167    7.2802   17.0354 C   0  0  2  0  0  0  0  0  0  0  0  0
   25.9922    8.3267   16.4112 C   0  0  1  0  0  0  0  0  0  0  0  0
   26.1342    8.2633   14.8881 C   0  0  1  0  0  0  0  0  0  0  0  0
  5  4  1  6  0  0  0
  5  8  1  0  0  0  0
  5 16  1  0  0  0  0
  8  7  1  6  0  0  0
  8 10  1  0  0  0  0
 10  1  1  6  0  0  0
 10 12  1  0  0  0  0
 11 18  1  0  0  0  0
 12 14  1  0  0  0  0
 14  2  1  1  0  0  0
 14 16  1  0  0  0  0
 16  9  1  1  0  0  0
 17  9  1  1  0  0  0
 17 11  1  0  0  0  0
 17 22  1  0  0  0  0
 18 19  1  1  0  0  0
 18 20  1  0  0  0  0
 19  3  1  0  0  0  0
 20 13  1  1  0  0  0
 20 21  1  0  0  0  0
 21 15  1  6  0  0  0
 21 22  1  0  0  0  0
 22  6  1  6  0  0  0
M  END
>  <CHROM.1>
64.90509663,83.41126742,74.89622956,28.38420430,9.45500478,14.67484601,-1.11961320
0.28125300,2.18839986

>  <Name>
2fcx_lig

>  <RI>
0

>  <Rbt.Current_Directory>
/home/itssahil/PROJECTS/Mol_Feturizer/New_Systems/rnas/2fcx

>  <Rbt.Executable>
rbdock ($Id: //depot/dev/client3/rdock/2013.1/src/exe/rbdock.cxx#4 $)

>  <Rbt.Library>
libRbt.so (2013.1, Build901 2013/11/27)

>  <Rbt.Parameter_File>
/export/apps/rDock/src/rDock_2013.1_src/data/scripts/dock_solv.prm

>  <Rbt.Receptor>
prm/pocket_docking_2.prm

>  <SCORE>
-14.5253

>  <SCORE.INTER>
-14.2168

>  <SCORE.INTER.CONST>
1

>  <SCORE.INTER.POLAR>
-1.17145

>  <SCORE.INTER.ROT>
3

>  <SCORE.INTER.SOLV>
17.3199

>  <SCORE.INTER.VDW>
-16.9463

>  <SCORE.INTER.norm>
-0.646216

>  <SCORE.INTRA>
-0.308537

>  <SCORE.INTRA.DIHEDRAL>
-1.62394

>  <SCORE.INTRA.DIHEDRAL.0>
4.88619

>  <SCORE.INTRA.POLAR>
0

>  <SCORE.INTRA.POLAR.0>
0

>  <SCORE.INTRA.REPUL>
0

>  <SCORE.INTRA.REPUL.0>
0

>  <SCORE.INTRA.SOLV>
-0.62182

>  <SCORE.INTRA.SOLV.lig_0>
-73.8187

>  <SCORE.INTRA.VDW>
0.814344

>  <SCORE.INTRA.VDW.0>
-1.32335

>  <SCORE.INTRA.norm>
-0.0140244

>  <SCORE.RESTR>
0

>  <SCORE.RESTR.CAVITY>
0

>  <SCORE.RESTR.norm>
0

>  <SCORE.SYSTEM>
0

>  <SCORE.SYSTEM.CONST>
0

>  <SCORE.SYSTEM.DIHEDRAL>
0

>  <SCORE.SYSTEM.SOLV>
0

>  <SCORE.SYSTEM.norm>
0

>  <SCORE.heavy>
22

>  <SCORE.norm>
-0.66024

>  <RMSD>
0.567

$$$$
2fcx_lig
 OpenBabel11021811433D
libRbt.so/2013.1/901 2013/11/27
 22 23  0  0  0  0  0  0  0  0999 V2000
   32.1809   13.2550   13.0196 N   0  0  0  0  0  0  0  0  0  0  0  0
   30.2628   10.7164   16.7548 N   0  0  0  0  0  0  0  0  0  0  0  0
   29.4763    6.1886   18.2227 N   0  0  0  0  0  0  0  0  0  0  0  0
   28.5735   10.0620   12.2384 O   0  0  0  0  0  0  0  0  0  0  0  0
   29.0833   11.0363   13.1529 C   0  0  2  0  0  0  0  0  0  0  0  0
   25.2945    9.6637   14.5484 N   0  0  0  0  0  0  0  0  0  0  0  0
   29.9824   12.3698   11.3721 O   0  0  0  0  0  0  0  0  0  0  0  0
   30.3445   11.6841   12.5765 C   0  0  1  0  0  0  0  0  0  0  0  0
   28.0971    9.9527   15.0982 O   0  0  0  0  0  0  0  0  0  0  0  0
   30.9454   12.6798   13.5714 C   0  0  1  0  0  0  0  0  0  0  0  0
   28.3936    7.6315   14.9711 O   0  0  0  0  0  0  0  0  0  0  0  0
   31.2635   11.9873   14.9009 C   0  0  0  0  0  0  0  0  0  0  0  0
   26.9017    7.0479   18.3051 O   0  0  0  0  0  0  0  0  0  0  0  0
   29.9782   11.3887   15.4792 C   0  0  1  0  0  0  0  0  0  0  0  0
   24.6909    8.0829   16.8659 O   0  0  0  0  0  0  0  0  0  0  0  0
   29.3391   10.3833   14.5167 C   0  0  2  0  0  0  0  0  0  0  0  0
   27.5859    8.7367   14.5256 C   0  0  1  0  0  0  0  0  0  0  0  0
   28.3618    7.4179   16.3967 C   0  0  2  0  0  0  0  0  0  0  0  0
   29.2160    6.2060   16.7756 C   0  0  0  0  0  0  0  0  0  0  0  0
   26.9303    7.1686   16.8795 C   0  0  2  0  0  0  0  0  0  0  0  0
   26.0393    8.3429   16.4713 C   0  0  1  0  0  0  0  0  0  0  0  0
   26.1287    8.5244   14.9537 C   0  0  1  0  0  0  0  0  0  0  0  0
  5  4  1  6  0  0  0
  5  8  1  0  0  0  0
  5 16  1  0  0  0  0
  8  7  1  6  0  0  0
  8 10  1  0  0  0  0
 10  1  1  6  0  0  0
 10 12  1  0  0  0  0
 11 18  1  0  0  0  0
 12 14  1  0  0  0  0
 14  2  1  1  0  0  0
 14 16  1  0  0  0  0
 16  9  1  1  0  0  0
 17  9  1  1  0  0  0
 17 11  1  0  0  0  0
 17 22  1  0  0  0  0
 18 19  1  6  0  0  0
 18 20  1  0  0  0  0
 19  3  1  0  0  0  0
 20 13  1  1  0  0  0
 20 21  1  0  0  0  0
 21 15  1  6  0  0  0
 21 22  1  0  0  0  0
 22  6  1  1  0  0  0
M  END
>  <CHROM.1>
77.22057791,72.53713272,165.18967260,28.56648304,9.54943774,15.06949772,-1.01286651
0.30571979,2.28200240

>  <Name>
2fcx_lig

>  <RI>
1.21945e+07

>  <Rbt.Current_Directory>
/home/itssahil/PROJECTS/Mol_Feturizer/New_Systems/rnas/2fcx

>  <Rbt.Executable>
rbdock ($Id: //depot/dev/client3/rdock/2013.1/src/exe/rbdock.cxx#4 $)

>  <Rbt.Library>
libRbt.so (2013.1, Build901 2013/11/27)

>  <Rbt.Parameter_File>
/export/apps/rDock/src/rDock_2013.1_src/data/scripts/dock_solv.prm

>  <Rbt.Receptor>
prm/pocket_docking_3.prm

>  <SCORE>
-15.7517

>  <SCORE.INTER>
-15.1802

>  <SCORE.INTER.CONST>
1

>  <SCORE.INTER.POLAR>
-0.916515

>  <SCORE.INTER.ROT>
3

>  <SCORE.INTER.SOLV>
14.3504

>  <SCORE.INTER.VDW>
-17.4486

>  <SCORE.INTER.norm>
-0.69001

>  <SCORE.INTRA>
-0.571514

>  <SCORE.INTRA.DIHEDRAL>
-2.00268

>  <SCORE.INTRA.DIHEDRAL.0>
4.88619

>  <SCORE.INTRA.POLAR>
0

>  <SCORE.INTRA.POLAR.0>
0

>  <SCORE.INTRA.REPUL>
0

>  <SCORE.INTRA.REPUL.0>
0

>  <SCORE.INTRA.SOLV>
0.683312

>  <SCORE.INTRA.SOLV.lig_0>
-73.8187

>  <SCORE.INTRA.VDW>
0.0881713

>  <SCORE.INTRA.VDW.0>
-1.32335

>  <SCORE.INTRA.norm>
-0.0259779

>  <SCORE.RESTR>
0

>  <SCORE.RESTR.CAVITY>
0

>  <SCORE.RESTR.norm>
0

>  <SCORE.SYSTEM>
0

>  <SCORE.SYSTEM.CONST>
0

>  <SCORE.SYSTEM.DIHEDRAL>
0

>  <SCORE.SYSTEM.SOLV>
0

>  <SCORE.SYSTEM.norm>
0

>  <SCORE.heavy>
22

>  <SCORE.norm>
-0.715988

>  <RMSD>
0.577

$$$$
2fcx_lig
 OpenBabel11021811433D
libRbt.so/2013.1/901 2013/11/27
 22 23  0  0  0  0  0  0  0  0999 V2000
   32.2222   13.1982   12.9750 N   0  0  0  0  0  0  0  0  0  0  0  0
   30.1697   10.7406   16.6927 N   0  0  0  0  0  0  0  0  0  0  0  0
   29.4439    6.3116   18.1971 N   0  0  0  0  0  0  0  0  0  0  0  0
   28.5886   10.0480   12.1429 O   0  0  0  0  0  0  0  0  0  0  0  0
   29.0892   11.0274   13.0572 C   0  0  2  0  0  0  0  0  0  0  0  0
   25.2386    9.6680   14.4327 N   0  0  0  0  0  0  0  0  0  0  0  0
   30.0543   12.3226   11.2825 O   0  0  0  0  0  0  0  0  0  0  0  0
   30.3745   11.6485   12.5053 C   0  0  1  0  0  0  0  0  0  0  0  0
   28.0365    9.9857   14.9905 O   0  0  0  0  0  0  0  0  0  0  0  0
   30.9642   12.6491   13.5019 C   0  0  1  0  0  0  0  0  0  0  0  0
   28.3476    7.6642   14.9143 O   0  0  0  0  0  0  0  0  0  0  0  0
   31.2372   11.9706   14.8485 C   0  0  0  0  0  0  0  0  0  0  0  0
   26.8419    7.1425   18.2523 O   0  0  0  0  0  0  0  0  0  0  0  0
   29.9285   11.3991   15.4011 C   0  0  1  0  0  0  0  0  0  0  0  0
   24.6324    8.1331   16.7803 O   0  0  0  0  0  0  0  0  0  0  0  0
   29.2995   10.3898   14.4360 C   0  0  2  0  0  0  0  0  0  0  0  0
   27.5356    8.7548   14.4413 C   0  0  1  0  0  0  0  0  0  0  0  0
   28.3096    7.4807   16.3439 C   0  0  2  0  0  0  0  0  0  0  0  0
   29.1691    6.2824   16.7528 C   0  0  0  0  0  0  0  0  0  0  0  0
   26.8772    7.2330   16.8246 C   0  0  2  0  0  0  0  0  0  0  0  0
   25.9813    8.3929   16.3870 C   0  0  1  0  0  0  0  0  0  0  0  0
   26.0774    8.5427   14.8664 C   0  0  1  0  0  0  0  0  0  0  0  0
  5  4  1  6  0  0  0
  5  8  1  0  0  0  0
  5 16  1  0  0  0  0
  8  7  1  6  0  0  0
  8 10  1  0  0  0  0
 10  1  1  6  0  0  0
 10 12  1  0  0  0  0
 11 18  1  0  0  0  0
 12 14  1  0  0  0  0
 14  2  1  1  0  0  0
 14 16  1  0  0  0  0
 16  9  1  1  0  0  0
 17  9  1  1  0  0  0
 17 11  1  0  0  0  0
 17 22  1  0  0  0  0
 18 19  1  6  0  0  0
 18 20  1  0  0  0  0
 19  3  1  0  0  0  0
 20 13  1  1  0  0  0
 20 21  1  0  0  0  0
 21 15  1  6  0  0  0
 21 22  1  0  0  0  0
 22  6  1  1  0  0  0
M  END
>  <CHROM.1>
78.45096233,70.70620159,164.08926952,28.53717099,9.57063026,14.99789601,-0.99325759
0.31132247,2.25767349

>  <Name>
2fcx_lig

>  <RI>
3.23342e+07

>  <Rbt.Current_Directory>
/home/itssahil/PROJECTS/Mol_Feturizer/New_Systems/rnas/2fcx

>  <Rbt.Executable>
rbdock ($Id: //depot/dev/client3/rdock/2013.1/src/exe/rbdock.cxx#4 $)

>  <Rbt.Library>
libRbt.so (2013.1, Build901 2013/11/27)

>  <Rbt.Parameter_File>
/export/apps/rDock/src/rDock_2013.1_src/data/scripts/dock_solv.prm

>  <Rbt.Receptor>
prm/pocket_docking_5.prm

>  <SCORE>
-15.7869

>  <SCORE.INTER>
-15.1939

>  <SCORE.INTER.CONST>
1

>  <SCORE.INTER.POLAR>
-0.916515

>  <SCORE.INTER.ROT>
3

>  <SCORE.INTER.SOLV>
13.8886

>  <SCORE.INTER.VDW>
-17.3037

>  <SCORE.INTER.norm>
-0.690631

>  <SCORE.INTRA>
-0.592968

>  <SCORE.INTRA.DIHEDRAL>
-1.90374

>  <SCORE.INTRA.DIHEDRAL.0>
4.88619

>  <SCORE.INTRA.POLAR>
0

>  <SCORE.INTRA.POLAR.0>
0

>  <SCORE.INTRA.REPUL>
0

>  <SCORE.INTRA.REPUL.0>
0

>  <SCORE.INTRA.SOLV>
0.687463

>  <SCORE.INTRA.SOLV.lig_0>
-73.8187

>  <SCORE.INTRA.VDW>
0.0151684

>  <SCORE.INTRA.VDW.0>
-1.32335

>  <SCORE.INTRA.norm>
-0.0269531

>  <SCORE.RESTR>
0

>  <SCORE.RESTR.CAVITY>
0

>  <SCORE.RESTR.norm>
0

>  <SCORE.SYSTEM>
0

>  <SCORE.SYSTEM.CONST>
0

>  <SCORE.SYSTEM.DIHEDRAL>
0

>  <SCORE.SYSTEM.SOLV>
0

>  <SCORE.SYSTEM.norm>
0

>  <SCORE.heavy>
22

>  <SCORE.norm>
-0.717584

>  <RMSD>
0.583

$$$$
2fcx_lig
 OpenBabel11021811433D
libRbt.so/2013.1/901 2013/11/27
 22 23  0  0  0  0  0  0  0  0999 V2000
   32.2481   13.2049   13.0183 N   0  0  0  0  0  0  0  0  0  0  0  0
   30.2198   10.7163   16.7288 N   0  0  0  0  0  0  0  0  0  0  0  0
   29.4552    6.2470   18.2202 N   0  0  0  0  0  0  0  0  0  0  0  0
   28.6235   10.0458   12.1811 O   0  0  0  0  0  0  0  0  0  0  0  0
   29.1238   11.0214   13.0994 C   0  0  2  0  0  0  0  0  0  0  0  0
   25.2854    9.6486   14.4686 N   0  0  0  0  0  0  0  0  0  0  0  0
   30.0769   12.3313   11.3290 O   0  0  0  0  0  0  0  0  0  0  0  0
   30.4046   11.6509   12.5463 C   0  0  1  0  0  0  0  0  0  0  0  0
   28.0829    9.9637   15.0303 O   0  0  0  0  0  0  0  0  0  0  0  0
   30.9944   12.6476   13.5468 C   0  0  1  0  0  0  0  0  0  0  0  0
   28.3948    7.6429   14.9393 O   0  0  0  0  0  0  0  0  0  0  0  0
   31.2752   11.9619   14.8881 C   0  0  0  0  0  0  0  0  0  0  0  0
   26.8871    7.0989   18.2728 O   0  0  0  0  0  0  0  0  0  0  0  0
   29.9709   11.3819   15.4423 C   0  0  1  0  0  0  0  0  0  0  0  0
   24.6782    8.0983   16.8058 O   0  0  0  0  0  0  0  0  0  0  0  0
   29.3421   10.3761   14.4734 C   0  0  2  0  0  0  0  0  0  0  0  0
   27.5827    8.7361   14.4728 C   0  0  1  0  0  0  0  0  0  0  0  0
   28.3560    7.4501   16.3676 C   0  0  2  0  0  0  0  0  0  0  0  0
   29.2156    6.2494   16.7693 C   0  0  0  0  0  0  0  0  0  0  0  0
   26.9233    7.1987   16.8458 C   0  0  2  0  0  0  0  0  0  0  0  0
   26.0273    8.3612   16.4152 C   0  0  1  0  0  0  0  0  0  0  0  0
   26.1244    8.5208   14.8956 C   0  0  1  0  0  0  0  0  0  0  0  0
  5  4  1  6  0  0  0
  5  8  1  0  0  0  0
  5 16  1  0  0  0  0
  8  7  1  6  0  0  0
  8 10  1  0  0  0  0
 10  1  1  6  0  0  0
 10 12  1  0  0  0  0
 11 18  1  0  0  0  0
 12 14  1  0  0  0  0
 14  2  1  1  0  0  0
 14 16  1  0  0  0  0
 16  9  1  1  0  0  0
 17  9  1  1  0  0  0
 17 11  1  0  0  0  0
 17 22  1  0  0  0  0
 18 19  1  6  0  0  0
 18 20  1  0  0  0  0
 19  3  1  0  0  0  0
 20 13  1  1  0  0  0
 20 21  1  0  0  0  0
 21 15  1  6  0  0  0
 21 22  1  0  0  0  0
 22  6  1  1  0  0  0
M  END
>  <CHROM.1>
78.28879957,71.06806879,165.81100990,28.57684354,9.55093670,15.03105045,-0.99709039
0.31258608,2.26502944

>  <Name>
2fcx_lig

>  <RI>
1.21945e+07

>  <Rbt.Current_Directory>
/home/itssahil/PROJECTS/Mol_Feturizer/New_Systems/rnas/2fcx

>  <Rbt.Executable>
rbdock ($Id: //depot/dev/client3/rdock/2013.1/src/exe/rbdock.cxx#4 $)

>  <Rbt.Library>
libRbt.so (2013.1, Build901 2013/11/27)

>  <Rbt.Parameter_File>
/export/apps/rDock/src/rDock_2013.1_src/data/scripts/dock_solv.prm

>  <Rbt.Receptor>
prm/pocket_docking_3.prm

>  <SCORE>
-15.8134

>  <SCORE.INTER>
-15.2041

>  <SCORE.INTER.CONST>
1

>  <SCORE.INTER.POLAR>
-0.916515

>  <SCORE.INTER.ROT>
3

>  <SCORE.INTER.SOLV>
14.1726

>  <SCORE.INTER.VDW>
-17.4052

>  <SCORE.INTER.norm>
-0.691095

>  <SCORE.INTRA>
-0.609266

>  <SCORE.INTRA.DIHEDRAL>
-2.06091

>  <SCORE.INTRA.DIHEDRAL.0>
4.88619

>  <SCORE.INTRA.POLAR>
0

>  <SCORE.INTRA.POLAR.0>
0

>  <SCORE.INTRA.REPUL>
0

>  <SCORE.INTRA.REPUL.0>
0

>  <SCORE.INTRA.SOLV>
0.727629

>  <SCORE.INTRA.SOLV.lig_0>
-73.8187

>  <SCORE.INTRA.VDW>
0.0573734

>  <SCORE.INTRA.VDW.0>
-1.32335

>  <SCORE.INTRA.norm>
-0.0276939

>  <SCORE.RESTR>
0

>  <SCORE.RESTR.CAVITY>
0

>  <SCORE.RESTR.norm>
0

>  <SCORE.SYSTEM>
0

>  <SCORE.SYSTEM.CONST>
0

>  <SCORE.SYSTEM.DIHEDRAL>
0

>  <SCORE.SYSTEM.SOLV>
0

>  <SCORE.SYSTEM.norm>
0

>  <SCORE.heavy>
22

>  <SCORE.norm>
-0.718789

>  <RMSD>
0.593

$$$$
2fcx_lig
 OpenBabel11021811433D
libRbt.so/2013.1/901 2013/11/27
 22 23  0  0  0  0  0  0  0  0999 V2000
   31.1695   13.1998   11.6131 N   0  0  0  0  0  0  0  0  0  0  0  0
   29.9473   11.4932   16.0480 N   0  0  0  0  0  0  0  0  0  0  0  0
   30.7156    6.8948   17.0384 N   0  0  0  0  0  0  0  0  0  0  0  0
   28.4049    9.2008   12.0422 O   0  0  0  0  0  0  0  0  0  0  0  0
   28.6824   10.4859   12.6052 C   0  0  2  0  0  0  0  0  0  0  0  0
   25.2458    9.2508   14.2845 N   0  0  0  0  0  0  0  0  0  0  0  0
   29.2212   11.4109   10.4576 O   0  0  0  0  0  0  0  0  0  0  0  0
   29.7488   11.2017   11.7728 C   0  0  1  0  0  0  0  0  0  0  0  0
   28.0021    9.8220   14.8474 O   0  0  0  0  0  0  0  0  0  0  0  0
   30.1106   12.5502   12.3995 C   0  0  1  0  0  0  0  0  0  0  0  0
   28.4566    7.5371   15.1012 O   0  0  0  0  0  0  0  0  0  0  0  0
   30.5986   12.3612   13.8398 C   0  0  0  0  0  0  0  0  0  0  0  0
   26.8916    7.3838   18.4491 O   0  0  0  0  0  0  0  0  0  0  0  0
   29.4972   11.6865   14.6623 C   0  0  1  0  0  0  0  0  0  0  0  0
   24.6683    8.0178   16.8105 O   0  0  0  0  0  0  0  0  0  0  0  0
   29.1009   10.3298   14.0723 C   0  0  2  0  0  0  0  0  0  0  0  0
   27.5931    8.4975   14.4652 C   0  0  1  0  0  0  0  0  0  0  0  0
   28.3894    7.5501   16.5414 C   0  0  2  0  0  0  0  0  0  0  0  0
   29.3086    6.4774   17.1298 C   0  0  0  0  0  0  0  0  0  0  0  0
   26.9618    7.2791   17.0237 C   0  0  2  0  0  0  0  0  0  0  0  0
   26.0093    8.3075   16.4115 C   0  0  1  0  0  0  0  0  0  0  0  0
   26.1393    8.2524   14.8870 C   0  0  1  0  0  0  0  0  0  0  0  0
  5  4  1  6  0  0  0
  5  8  1  0  0  0  0
  5 16  1  0  0  0  0
  8  7  1  6  0  0  0
  8 10  1  0  0  0  0
 10  1  1  6  0  0  0
 10 12  1  0  0  0  0
 11 18  1  0  0  0  0
 12 14  1  0  0  0  0
 14  2  1  1  0  0  0
 14 16  1  0  0  0  0
 16  9  1  1  0  0  0
 17  9  1  1  0  0  0
 17 11  1  0  0  0  0
 17 22  1  0  0  0  0
 18 19  1  1  0  0  0
 18 20  1  0  0  0  0
 19  3  1  0  0  0  0
 20 13  1  1  0  0  0
 20 21  1  0  0  0  0
 21 15  1  6  0  0  0
 21 22  1  0  0  0  0
 22  6  1  6  0  0  0
M  END
>  <CHROM.1>
64.16501631,82.37278472,74.97887879,28.37812056,9.48165324,14.66329664,-1.12872633
0.29207509,2.19169071

>  <Name>
2fcx_lig

>  <RI>
0

>  <Rbt.Current_Directory>
/home/itssahil/PROJECTS/Mol_Feturizer/New_Systems/rnas/2fcx

>  <Rbt.Executable>
rbdock ($Id: //depot/dev/client3/rdock/2013.1/src/exe/rbdock.cxx#4 $)

>  <Rbt.Library>
libRbt.so (2013.1, Build901 2013/11/27)

>  <Rbt.Parameter_File>
/export/apps/rDock/src/rDock_2013.1_src/data/scripts/dock_solv.prm

>  <Rbt.Receptor>
prm/pocket_docking_2.prm

>  <SCORE>
-14.4572

>  <SCORE.INTER>
-14.0971

>  <SCORE.INTER.CONST>
1

>  <SCORE.INTER.POLAR>
-1.17435

>  <SCORE.INTER.ROT>
3

>  <SCORE.INTER.SOLV>
17.15

>  <SCORE.INTER.VDW>
-16.8003

>  <SCORE.INTER.norm>
-0.640778

>  <SCORE.INTRA>
-0.360112

>  <SCORE.INTRA.DIHEDRAL>
-1.831

>  <SCORE.INTRA.DIHEDRAL.0>
4.88619

>  <SCORE.INTRA.POLAR>
0

>  <SCORE.INTRA.POLAR.0>
0

>  <SCORE.INTRA.REPUL>
0

>  <SCORE.INTRA.REPUL.0>
0

>  <SCORE.INTRA.SOLV>
-0.67413

>  <SCORE.INTRA.SOLV.lig_0>
-73.8187

>  <SCORE.INTRA.VDW>
0.892455

>  <SCORE.INTRA.VDW.0>
-1.32335

>  <SCORE.INTRA.norm>
-0.0163687

>  <SCORE.RESTR>
0

>  <SCORE.RESTR.CAVITY>
0

>  <SCORE.RESTR.norm>
0

>  <SCORE.SYSTEM>
0

>  <SCORE.SYSTEM.CONST>
0

>  <SCORE.SYSTEM.DIHEDRAL>
0

>  <SCORE.SYSTEM.SOLV>
0

>  <SCORE.SYSTEM.norm>
0

>  <SCORE.heavy>
22

>  <SCORE.norm>
-0.657147

>  <RMSD>
0.597

$$$$
2fcx_lig
 OpenBabel11021811433D
libRbt.so/2013.1/901 2013/11/27
 22 23  0  0  0  0  0  0  0  0999 V2000
   31.1837   13.1716   11.6223 N   0  0  0  0  0  0  0  0  0  0  0  0
   29.9245   11.4629   16.0461 N   0  0  0  0  0  0  0  0  0  0  0  0
   30.6581    6.8756   17.0177 N   0  0  0  0  0  0  0  0  0  0  0  0
   28.3635    9.2089   12.0257 O   0  0  0  0  0  0  0  0  0  0  0  0
   28.6567   10.4877   12.5951 C   0  0  2  0  0  0  0  0  0  0  0  0
   25.1979    9.2748   14.2777 N   0  0  0  0  0  0  0  0  0  0  0  0
   29.2148   11.4144   10.4532 O   0  0  0  0  0  0  0  0  0  0  0  0
   29.7354   11.1924   11.7691 C   0  0  1  0  0  0  0  0  0  0  0  0
   27.9605    9.8236   14.8324 O   0  0  0  0  0  0  0  0  0  0  0  0
   30.1136   12.5332   12.4027 C   0  0  1  0  0  0  0  0  0  0  0  0
   28.3982    7.5347   15.0796 O   0  0  0  0  0  0  0  0  0  0  0  0
   30.5945   12.3313   13.8437 C   0  0  0  0  0  0  0  0  0  0  0  0
   26.8436    7.3862   18.4326 O   0  0  0  0  0  0  0  0  0  0  0  0
   29.4814   11.6682   14.6598 C   0  0  1  0  0  0  0  0  0  0  0  0
   24.6196    8.0409   16.8030 O   0  0  0  0  0  0  0  0  0  0  0  0
   29.0685   10.3196   14.0628 C   0  0  2  0  0  0  0  0  0  0  0  0
   27.5400    8.5031   14.4487 C   0  0  1  0  0  0  0  0  0  0  0  0
   28.3361    7.5451   16.5201 C   0  0  2  0  0  0  0  0  0  0  0  0
   29.2490    6.4641   17.1031 C   0  0  0  0  0  0  0  0  0  0  0  0
   26.9080    7.2840   17.0068 C   0  0  2  0  0  0  0  0  0  0  0  0
   25.9615    8.3211   16.4000 C   0  0  1  0  0  0  0  0  0  0  0  0
   26.0857    8.2682   14.8750 C   0  0  1  0  0  0  0  0  0  0  0  0
  5  4  1  6  0  0  0
  5  8  1  0  0  0  0
  5 16  1  0  0  0  0
  8  7  1  6  0  0  0
  8 10  1  0  0  0  0
 10  1  1  6  0  0  0
 10 12  1  0  0  0  0
 11 18  1  0  0  0  0
 12 14  1  0  0  0  0
 14  2  1  1  0  0  0
 14 16  1  0  0  0  0
 16  9  1  1  0  0  0
 17  9  1  1  0  0  0
 17 11  1  0  0  0  0
 17 22  1  0  0  0  0
 18 19  1  1  0  0  0
 18 20  1  0  0  0  0
 19  3  1  0  0  0  0
 20 13  1  1  0  0  0
 20 21  1  0  0  0  0
 21 15  1  6  0  0  0
 21 22  1  0  0  0  0
 22  6  1  6  0  0  0
M  END
>  <CHROM.1>
64.52968311,81.82761249,75.44121795,28.34297632,9.47839061,14.65293189,-1.12077932
0.28451322,2.19154888

>  <Name>
2fcx_lig

>  <RI>
0

>  <Rbt.Current_Directory>
/home/itssahil/PROJECTS/Mol_Feturizer/New_Systems/rnas/2fcx

>  <Rbt.Executable>
rbdock ($Id: //depot/dev/client3/rdock/2013.1/src/exe/rbdock.cxx#4 $)

>  <Rbt.Library>
libRbt.so (2013.1, Build901 2013/11/27)

>  <Rbt.Parameter_File>
/export/apps/rDock/src/rDock_2013.1_src/data/scripts/dock_solv.prm

>  <Rbt.Receptor>
prm/pocket_docking_2.prm

>  <SCORE>
-14.511

>  <SCORE.INTER>
-14.095

>  <SCORE.INTER.CONST>
1

>  <SCORE.INTER.POLAR>
-1.17914

>  <SCORE.INTER.ROT>
3

>  <SCORE.INTER.SOLV>
17.1939

>  <SCORE.INTER.VDW>
-16.7975

>  <SCORE.INTER.norm>
-0.640681

>  <SCORE.INTRA>
-0.415996

>  <SCORE.INTRA.DIHEDRAL>
-1.86416

>  <SCORE.INTRA.DIHEDRAL.0>
4.88619

>  <SCORE.INTRA.POLAR>
0

>  <SCORE.INTRA.POLAR.0>
0

>  <SCORE.INTRA.REPUL>
0

>  <SCORE.INTRA.REPUL.0>
0

>  <SCORE.INTRA.SOLV>
-0.684476

>  <SCORE.INTRA.SOLV.lig_0>
-73.8187

>  <SCORE.INTRA.VDW>
0.858321

>  <SCORE.INTRA.VDW.0>
-1.32335

>  <SCORE.INTRA.norm>
-0.0189089

>  <SCORE.RESTR>
0

>  <SCORE.RESTR.CAVITY>
0

>  <SCORE.RESTR.norm>
0

>  <SCORE.SYSTEM>
0

>  <SCORE.SYSTEM.CONST>
0

>  <SCORE.SYSTEM.DIHEDRAL>
0

>  <SCORE.SYSTEM.SOLV>
0

>  <SCORE.SYSTEM.norm>
0

>  <SCORE.heavy>
22

>  <SCORE.norm>
-0.65959

>  <RMSD>
0.602

$$$$
2fcx_lig
 OpenBabel11021811433D
libRbt.so/2013.1/901 2013/11/27
 22 23  0  0  0  0  0  0  0  0999 V2000
   32.2361   13.1892   13.0807 N   0  0  0  0  0  0  0  0  0  0  0  0
   30.2187   10.7156   16.8071 N   0  0  0  0  0  0  0  0  0  0  0  0
   29.4849    6.1696   18.2152 N   0  0  0  0  0  0  0  0  0  0  0  0
   28.6119   10.0236   12.2662 O   0  0  0  0  0  0  0  0  0  0  0  0
   29.1137   11.0037   13.1790 C   0  0  2  0  0  0  0  0  0  0  0  0
   25.2702    9.6587   14.5990 N   0  0  0  0  0  0  0  0  0  0  0  0
   30.0615   12.3064   11.4005 O   0  0  0  0  0  0  0  0  0  0  0  0
   30.3926   11.6317   12.6200 C   0  0  1  0  0  0  0  0  0  0  0  0
   28.0782    9.9538   15.1171 O   0  0  0  0  0  0  0  0  0  0  0  0
   30.9841   12.6333   13.6146 C   0  0  1  0  0  0  0  0  0  0  0  0
   28.3798    7.6340   14.9782 O   0  0  0  0  0  0  0  0  0  0  0  0
   31.2688   11.9537   14.9583 C   0  0  0  0  0  0  0  0  0  0  0  0
   26.9287    7.0342   18.3273 O   0  0  0  0  0  0  0  0  0  0  0  0
   29.9662   11.3752   15.5182 C   0  0  1  0  0  0  0  0  0  0  0  0
   24.6983    8.0679   16.9178 O   0  0  0  0  0  0  0  0  0  0  0  0
   29.3358   10.3647   14.5553 C   0  0  2  0  0  0  0  0  0  0  0  0
   27.5638    8.7384   14.5462 C   0  0  1  0  0  0  0  0  0  0  0  0
   28.3653    7.4151   16.4033 C   0  0  2  0  0  0  0  0  0  0  0  0
   29.2273    6.2044   16.7678 C   0  0  0  0  0  0  0  0  0  0  0  0
   26.9403    7.1600   16.9019 C   0  0  2  0  0  0  0  0  0  0  0  0
   26.0412    8.3332   16.5084 C   0  0  1  0  0  0  0  0  0  0  0  0
   26.1123    8.5203   14.9905 C   0  0  1  0  0  0  0  0  0  0  0  0
  5  4  1  6  0  0  0
  5  8  1  0  0  0  0
  5 16  1  0  0  0  0
  8  7  1  6  0  0  0
  8 10  1  0  0  0  0
 10  1  1  6  0  0  0
 10 12  1  0  0  0  0
 11 18  1  0  0  0  0
 12 14  1  0  0  0  0
 14  2  1  1  0  0  0
 14 16  1  0  0  0  0
 16  9  1  1  0  0  0
 17  9  1  1  0  0  0
 17 11  1  0  0  0  0
 17 22  1  0  0  0  0
 18 19  1  6  0  0  0
 18 20  1  0  0  0  0
 19  3  1  0  0  0  0
 20 13  1  1  0  0  0
 20 21  1  0  0  0  0
 21 15  1  6  0  0  0
 21 22  1  0  0  0  0
 22  6  1  1  0  0  0
M  END
>  <CHROM.1>
77.04274174,70.46856334,166.18477063,28.57648095,9.52937305,15.10003008,-1.00243466
0.30098549,2.27879933

>  <Name>
2fcx_lig

>  <RI>
3.23342e+07

>  <Rbt.Current_Directory>
/home/itssahil/PROJECTS/Mol_Feturizer/New_Systems/rnas/2fcx

>  <Rbt.Executable>
rbdock ($Id: //depot/dev/client3/rdock/2013.1/src/exe/rbdock.cxx#4 $)

>  <Rbt.Library>
libRbt.so (2013.1, Build901 2013/11/27)

>  <Rbt.Parameter_File>
/export/apps/rDock/src/rDock_2013.1_src/data/scripts/dock_solv.prm

>  <Rbt.Receptor>
prm/pocket_docking_5.prm

>  <SCORE>
-15.8235

>  <SCORE.INTER>
-15.1097

>  <SCORE.INTER.CONST>
1

>  <SCORE.INTER.POLAR>
-0.916515

>  <SCORE.INTER.ROT>
3

>  <SCORE.INTER.SOLV>
14.6171

>  <SCORE.INTER.VDW>
-17.4905

>  <SCORE.INTER.norm>
-0.686805

>  <SCORE.INTRA>
-0.713789

>  <SCORE.INTRA.DIHEDRAL>
-2.34342

>  <SCORE.INTRA.DIHEDRAL.0>
4.88619

>  <SCORE.INTRA.POLAR>
0

>  <SCORE.INTRA.POLAR.0>
0

>  <SCORE.INTRA.REPUL>
0

>  <SCORE.INTRA.REPUL.0>
0

>  <SCORE.INTRA.SOLV>
0.649802

>  <SCORE.INTRA.SOLV.lig_0>
-73.8187

>  <SCORE.INTRA.VDW>
0.133021

>  <SCORE.INTRA.VDW.0>
-1.32335

>  <SCORE.INTRA.norm>
-0.032445

>  <SCORE.RESTR>
0

>  <SCORE.RESTR.CAVITY>
0

>  <SCORE.RESTR.norm>
0

>  <SCORE.SYSTEM>
0

>  <SCORE.SYSTEM.CONST>
0

>  <SCORE.SYSTEM.DIHEDRAL>
0

>  <SCORE.SYSTEM.SOLV>
0

>  <SCORE.SYSTEM.norm>
0

>  <SCORE.heavy>
22

>  <SCORE.norm>
-0.71925

>  <RMSD>
0.604

$$$$
2fcx_lig
 OpenBabel11021811433D
libRbt.so/2013.1/901 2013/11/27
 22 23  0  0  0  0  0  0  0  0999 V2000
   32.2439   13.1644   13.0879 N   0  0  0  0  0  0  0  0  0  0  0  0
   30.2020   10.7079   16.8123 N   0  0  0  0  0  0  0  0  0  0  0  0
   29.4827    6.1782   18.2140 N   0  0  0  0  0  0  0  0  0  0  0  0
   28.6179   10.0031   12.2655 O   0  0  0  0  0  0  0  0  0  0  0  0
   29.1168   10.9854   13.1774 C   0  0  2  0  0  0  0  0  0  0  0  0
   25.2622    9.6579   14.5842 N   0  0  0  0  0  0  0  0  0  0  0  0
   30.0765   12.2800   11.3995 O   0  0  0  0  0  0  0  0  0  0  0  0
   30.3998   11.6089   12.6230 C   0  0  1  0  0  0  0  0  0  0  0  0
   28.0690    9.9443   15.1138 O   0  0  0  0  0  0  0  0  0  0  0  0
   30.9880   12.6129   13.6172 C   0  0  1  0  0  0  0  0  0  0  0  0
   28.3638    7.6235   14.9773 O   0  0  0  0  0  0  0  0  0  0  0  0
   31.2643   11.9375   14.9648 C   0  0  0  0  0  0  0  0  0  0  0  0
   26.8969    7.0301   18.3206 O   0  0  0  0  0  0  0  0  0  0  0  0
   29.9577   11.3635   15.5198 C   0  0  1  0  0  0  0  0  0  0  0  0
   24.6756    8.0702   16.9013 O   0  0  0  0  0  0  0  0  0  0  0  0
   29.3303   10.3508   14.5571 C   0  0  2  0  0  0  0  0  0  0  0  0
   27.5531    8.7303   14.5413 C   0  0  1  0  0  0  0  0  0  0  0  0
   28.3426    7.4054   16.4024 C   0  0  2  0  0  0  0  0  0  0  0  0
   29.1992    6.1922   16.7711 C   0  0  0  0  0  0  0  0  0  0  0  0
   26.9148    7.1551   16.8952 C   0  0  2  0  0  0  0  0  0  0  0  0
   26.0211    8.3310   16.4974 C   0  0  1  0  0  0  0  0  0  0  0  0
   26.0991    8.5171   14.9797 C   0  0  1  0  0  0  0  0  0  0  0  0
  5  4  1  6  0  0  0
  5  8  1  0  0  0  0
  5 16  1  0  0  0  0
  8  7  1  6  0  0  0
  8 10  1  0  0  0  0
 10  1  1  6  0  0  0
 10 12  1  0  0  0  0
 11 18  1  0  0  0  0
 12 14  1  0  0  0  0
 14  2  1  1  0  0  0
 14 16  1  0  0  0  0
 16  9  1  1  0  0  0
 17  9  1  1  0  0  0
 17 11  1  0  0  0  0
 17 22  1  0  0  0  0
 18 19  1  6  0  0  0
 18 20  1  0  0  0  0
 19  3  1  0  0  0  0
 20 13  1  1  0  0  0
 20 21  1  0  0  0  0
 21 15  1  6  0  0  0
 21 22  1  0  0  0  0
 22  6  1  1  0  0  0
M  END
>  <CHROM.1>
76.84917066,70.45773174,164.57635320,28.56726288,9.51857943,15.09769313,-0.99657536
0.30129319,2.27577616

>  <Name>
2fcx_lig

>  <RI>
1.55453e+07

>  <Rbt.Current_Directory>
/home/itssahil/PROJECTS/Mol_Feturizer/New_Systems/rnas/2fcx

>  <Rbt.Executable>
rbdock ($Id: //depot/dev/client3/rdock/2013.1/src/exe/rbdock.cxx#4 $)

>  <Rbt.Library>
libRbt.so (2013.1, Build901 2013/11/27)

>  <Rbt.Parameter_File>
/export/apps/rDock/src/rDock_2013.1_src/data/scripts/dock_solv.prm

>  <Rbt.Receptor>
prm/pocket_docking_4.prm

>  <SCORE>
-15.8105

>  <SCORE.INTER>
-15.1087

>  <SCORE.INTER.CONST>
1

>  <SCORE.INTER.POLAR>
-0.916515

>  <SCORE.INTER.ROT>
3

>  <SCORE.INTER.SOLV>
14.6876

>  <SCORE.INTER.VDW>
-17.5133

>  <SCORE.INTER.norm>
-0.686759

>  <SCORE.INTRA>
-0.701788

>  <SCORE.INTRA.DIHEDRAL>
-2.21853

>  <SCORE.INTRA.DIHEDRAL.0>
4.88619

>  <SCORE.INTRA.POLAR>
0

>  <SCORE.INTRA.POLAR.0>
0

>  <SCORE.INTRA.REPUL>
0

>  <SCORE.INTRA.REPUL.0>
0

>  <SCORE.INTRA.SOLV>
0.599454

>  <SCORE.INTRA.SOLV.lig_0>
-73.8187

>  <SCORE.INTRA.VDW>
0.107752

>  <SCORE.INTRA.VDW.0>
-1.32335

>  <SCORE.INTRA.norm>
-0.0318995

>  <SCORE.RESTR>
0

>  <SCORE.RESTR.CAVITY>
0

>  <SCORE.RESTR.norm>
0

>  <SCORE.SYSTEM>
0

>  <SCORE.SYSTEM.CONST>
0

>  <SCORE.SYSTEM.DIHEDRAL>
0

>  <SCORE.SYSTEM.SOLV>
0

>  <SCORE.SYSTEM.norm>
0

>  <SCORE.heavy>
22

>  <SCORE.norm>
-0.718658

>  <RMSD>
0.609

$$$$
2fcx_lig
 OpenBabel11021811433D
libRbt.so/2013.1/901 2013/11/27
 22 23  0  0  0  0  0  0  0  0999 V2000
   32.2575   13.1682   13.0776 N   0  0  0  0  0  0  0  0  0  0  0  0
   30.1577   10.7363   16.7859 N   0  0  0  0  0  0  0  0  0  0  0  0
   29.4577    6.2464   18.2304 N   0  0  0  0  0  0  0  0  0  0  0  0
   28.6429   10.0031   12.2200 O   0  0  0  0  0  0  0  0  0  0  0  0
   29.1283   10.9910   13.1332 C   0  0  2  0  0  0  0  0  0  0  0  0
   25.2516    9.6408   14.5097 N   0  0  0  0  0  0  0  0  0  0  0  0
   30.1156   12.2739   11.3618 O   0  0  0  0  0  0  0  0  0  0  0  0
   30.4199   11.6105   12.5945 C   0  0  1  0  0  0  0  0  0  0  0  0
   28.0505    9.9627   15.0599 O   0  0  0  0  0  0  0  0  0  0  0  0
   30.9934   12.6205   13.5911 C   0  0  1  0  0  0  0  0  0  0  0  0
   28.3692    7.6432   14.9602 O   0  0  0  0  0  0  0  0  0  0  0  0
   31.2486   11.9537   14.9470 C   0  0  0  0  0  0  0  0  0  0  0  0
   26.8782    7.0842   18.2987 O   0  0  0  0  0  0  0  0  0  0  0  0
   29.9334   11.3837   15.4856 C   0  0  1  0  0  0  0  0  0  0  0  0
   24.6597    8.0814   16.8447 O   0  0  0  0  0  0  0  0  0  0  0  0
   29.3204   10.3652   14.5200 C   0  0  2  0  0  0  0  0  0  0  0  0
   27.5517    8.7354   14.5008 C   0  0  1  0  0  0  0  0  0  0  0  0
   28.3374    7.4458   16.3881 C   0  0  2  0  0  0  0  0  0  0  0  0
   29.2025    6.2466   16.7822 C   0  0  0  0  0  0  0  0  0  0  0  0
   26.9077    7.1886   16.8719 C   0  0  2  0  0  0  0  0  0  0  0  0
   26.0061    8.3496   16.4489 C   0  0  1  0  0  0  0  0  0  0  0  0
   26.0959    8.5142   14.9294 C   0  0  1  0  0  0  0  0  0  0  0  0
  5  4  1  6  0  0  0
  5  8  1  0  0  0  0
  5 16  1  0  0  0  0
  8  7  1  6  0  0  0
  8 10  1  0  0  0  0
 10  1  1  6  0  0  0
 10 12  1  0  0  0  0
 11 18  1  0  0  0  0
 12 14  1  0  0  0  0
 14  2  1  1  0  0  0
 14 16  1  0  0  0  0
 16  9  1  1  0  0  0
 17  9  1  1  0  0  0
 17 11  1  0  0  0  0
 17 22  1  0  0  0  0
 18 19  1  6  0  0  0
 18 20  1  0  0  0  0
 19  3  1  0  0  0  0
 20 13  1  1  0  0  0
 20 21  1  0  0  0  0
 21 15  1  6  0  0  0
 21 22  1  0  0  0  0
 22  6  1  1  0  0  0
M  END
>  <CHROM.1>
77.67116706,69.75504163,165.35230378,28.56333178,9.53660684,15.06654399,-0.98873264
0.31331375,2.26129333

>  <Name>
2fcx_lig

>  <RI>
1.21945e+07

>  <Rbt.Current_Directory>
/home/itssahil/PROJECTS/Mol_Feturizer/New_Systems/rnas/2fcx

>  <Rbt.Executable>
rbdock ($Id: //depot/dev/client3/rdock/2013.1/src/exe/rbdock.cxx#4 $)

>  <Rbt.Library>
libRbt.so (2013.1, Build901 2013/11/27)

>  <Rbt.Parameter_File>
/export/apps/rDock/src/rDock_2013.1_src/data/scripts/dock_solv.prm

>  <Rbt.Receptor>
prm/pocket_docking_3.prm

>  <SCORE>
-15.8365

>  <SCORE.INTER>
-15.1286

>  <SCORE.INTER.CONST>
1

>  <SCORE.INTER.POLAR>
-0.916515

>  <SCORE.INTER.ROT>
3

>  <SCORE.INTER.SOLV>
14.2403

>  <SCORE.INTER.VDW>
-17.3774

>  <SCORE.INTER.norm>
-0.687662

>  <SCORE.INTRA>
-0.707976

>  <SCORE.INTRA.DIHEDRAL>
-2.23975

>  <SCORE.INTRA.DIHEDRAL.0>
4.88619

>  <SCORE.INTRA.POLAR>
0

>  <SCORE.INTRA.POLAR.0>
0

>  <SCORE.INTRA.REPUL>
0

>  <SCORE.INTRA.REPUL.0>
0

>  <SCORE.INTRA.SOLV>
0.650531

>  <SCORE.INTRA.SOLV.lig_0>
-73.8187

>  <SCORE.INTRA.VDW>
0.0866325

>  <SCORE.INTRA.VDW.0>
-1.32335

>  <SCORE.INTRA.norm>
-0.0321807

>  <SCORE.RESTR>
0

>  <SCORE.RESTR.CAVITY>
0

>  <SCORE.RESTR.norm>
0

>  <SCORE.SYSTEM>
0

>  <SCORE.SYSTEM.CONST>
0

>  <SCORE.SYSTEM.DIHEDRAL>
0

>  <SCORE.SYSTEM.SOLV>
0

>  <SCORE.SYSTEM.norm>
0

>  <SCORE.heavy>
22

>  <SCORE.norm>
-0.719843

>  <RMSD>
0.610

$$$$
2fcx_lig
 OpenBabel11021811433D
libRbt.so/2013.1/901 2013/11/27
 22 23  0  0  0  0  0  0  0  0999 V2000
   32.2577   13.1466   13.0826 N   0  0  0  0  0  0  0  0  0  0  0  0
   30.1756   10.7195   16.8040 N   0  0  0  0  0  0  0  0  0  0  0  0
   29.5122    6.1996   18.1979 N   0  0  0  0  0  0  0  0  0  0  0  0
   28.6285    9.9920   12.2480 O   0  0  0  0  0  0  0  0  0  0  0  0
   29.1227   10.9783   13.1583 C   0  0  2  0  0  0  0  0  0  0  0  0
   25.2459    9.6387   14.5897 N   0  0  0  0  0  0  0  0  0  0  0  0
   30.1020   12.2589   11.3808 O   0  0  0  0  0  0  0  0  0  0  0  0
   30.4126   11.5943   12.6112 C   0  0  1  0  0  0  0  0  0  0  0  0
   28.0549    9.9524   15.0918 O   0  0  0  0  0  0  0  0  0  0  0  0
   30.9954   12.6023   13.6043 C   0  0  1  0  0  0  0  0  0  0  0  0
   28.3692    7.6338   14.9622 O   0  0  0  0  0  0  0  0  0  0  0  0
   31.2578   11.9343   14.9583 C   0  0  0  0  0  0  0  0  0  0  0  0
   26.9389    7.0414   18.3215 O   0  0  0  0  0  0  0  0  0  0  0  0
   29.9446   11.3679   15.5055 C   0  0  1  0  0  0  0  0  0  0  0  0
   24.6952    8.0556   16.9188 O   0  0  0  0  0  0  0  0  0  0  0  0
   29.3223   10.3514   14.5436 C   0  0  2  0  0  0  0  0  0  0  0  0
   27.5445    8.7314   14.5292 C   0  0  1  0  0  0  0  0  0  0  0  0
   28.3633    7.4216   16.3883 C   0  0  2  0  0  0  0  0  0  0  0  0
   29.2342    6.2176   16.7540 C   0  0  0  0  0  0  0  0  0  0  0  0
   26.9424    7.1606   16.8955 C   0  0  2  0  0  0  0  0  0  0  0  0
   26.0345    8.3267   16.5012 C   0  0  1  0  0  0  0  0  0  0  0  0
   26.0966    8.5071   14.9821 C   0  0  1  0  0  0  0  0  0  0  0  0
  5  4  1  6  0  0  0
  5  8  1  0  0  0  0
  5 16  1  0  0  0  0
  8  7  1  6  0  0  0
  8 10  1  0  0  0  0
 10  1  1  6  0  0  0
 10 12  1  0  0  0  0
 11 18  1  0  0  0  0
 12 14  1  0  0  0  0
 14  2  1  1  0  0  0
 14 16  1  0  0  0  0
 16  9  1  1  0  0  0
 17  9  1  1  0  0  0
 17 11  1  0  0  0  0
 17 22  1  0  0  0  0
 18 19  1  6  0  0  0
 18 20  1  0  0  0  0
 19  3  1  0  0  0  0
 20 13  1  1  0  0  0
 20 21  1  0  0  0  0
 21 15  1  6  0  0  0
 21 22  1  0  0  0  0
 22  6  1  1  0  0  0
M  END
>  <CHROM.1>
77.27750552,69.09784254,165.53913986,28.57550271,9.51774331,15.08886182,-0.99586061
0.30153579,2.27140184

>  <Name>
2fcx_lig

>  <RI>
1.55453e+07

>  <Rbt.Current_Directory>
/home/itssahil/PROJECTS/Mol_Feturizer/New_Systems/rnas/2fcx

>  <Rbt.Executable>
rbdock ($Id: //depot/dev/client3/rdock/2013.1/src/exe/rbdock.cxx#4 $)

>  <Rbt.Library>
libRbt.so (2013.1, Build901 2013/11/27)

>  <Rbt.Parameter_File>
/export/apps/rDock/src/rDock_2013.1_src/data/scripts/dock_solv.prm

>  <Rbt.Receptor>
prm/pocket_docking_4.prm

>  <SCORE>
-15.8686

>  <SCORE.INTER>
-15.0872

>  <SCORE.INTER.CONST>
1

>  <SCORE.INTER.POLAR>
-0.916515

>  <SCORE.INTER.ROT>
3

>  <SCORE.INTER.SOLV>
14.6023

>  <SCORE.INTER.VDW>
-17.4705

>  <SCORE.INTER.norm>
-0.68578

>  <SCORE.INTRA>
-0.781447

>  <SCORE.INTRA.DIHEDRAL>
-2.37507

>  <SCORE.INTRA.DIHEDRAL.0>
4.88619

>  <SCORE.INTRA.POLAR>
0

>  <SCORE.INTRA.POLAR.0>
0

>  <SCORE.INTRA.REPUL>
0

>  <SCORE.INTRA.REPUL.0>
0

>  <SCORE.INTRA.SOLV>
0.616814

>  <SCORE.INTRA.SOLV.lig_0>
-73.8187

>  <SCORE.INTRA.VDW>
0.0976811

>  <SCORE.INTRA.VDW.0>
-1.32335

>  <SCORE.INTRA.norm>
-0.0355203

>  <SCORE.RESTR>
0

>  <SCORE.RESTR.CAVITY>
0

>  <SCORE.RESTR.norm>
0

>  <SCORE.SYSTEM>
0

>  <SCORE.SYSTEM.CONST>
0

>  <SCORE.SYSTEM.DIHEDRAL>
0

>  <SCORE.SYSTEM.SOLV>
0

>  <SCORE.SYSTEM.norm>
0

>  <SCORE.heavy>
22

>  <SCORE.norm>
-0.721301

>  <RMSD>
0.610

$$$$
2fcx_lig
 OpenBabel11021811433D
libRbt.so/2013.1/901 2013/11/27
 22 23  0  0  0  0  0  0  0  0999 V2000
   32.2660   13.1494   13.0732 N   0  0  0  0  0  0  0  0  0  0  0  0
   30.1280   10.7306   16.7683 N   0  0  0  0  0  0  0  0  0  0  0  0
   29.4647    6.2649   18.2061 N   0  0  0  0  0  0  0  0  0  0  0  0
   28.6262   10.0190   12.1946 O   0  0  0  0  0  0  0  0  0  0  0  0
   29.1167   11.0009   13.1116 C   0  0  2  0  0  0  0  0  0  0  0  0
   25.2177    9.6336   14.5212 N   0  0  0  0  0  0  0  0  0  0  0  0
   30.1234   12.2776   11.3467 O   0  0  0  0  0  0  0  0  0  0  0  0
   30.4163   11.6094   12.5795 C   0  0  1  0  0  0  0  0  0  0  0  0
   28.0213    9.9793   15.0319 O   0  0  0  0  0  0  0  0  0  0  0  0
   30.9947   12.6124   13.5804 C   0  0  1  0  0  0  0  0  0  0  0  0
   28.3563    7.6618   14.9385 O   0  0  0  0  0  0  0  0  0  0  0  0
   31.2380   11.9409   14.9362 C   0  0  0  0  0  0  0  0  0  0  0  0
   26.9148    7.1073   18.2995 O   0  0  0  0  0  0  0  0  0  0  0  0
   29.9153   11.3822   15.4682 C   0  0  1  0  0  0  0  0  0  0  0  0
   24.6693    8.0808   16.8711 O   0  0  0  0  0  0  0  0  0  0  0  0
   29.2971   10.3710   14.4981 C   0  0  2  0  0  0  0  0  0  0  0  0
   27.5243    8.7456   14.4852 C   0  0  1  0  0  0  0  0  0  0  0  0
   28.3452    7.4709   16.3676 C   0  0  2  0  0  0  0  0  0  0  0  0
   29.2247    6.2801   16.7554 C   0  0  0  0  0  0  0  0  0  0  0  0
   26.9242    7.2051   16.8719 C   0  0  2  0  0  0  0  0  0  0  0  0
   26.0082    8.3573   16.4559 C   0  0  1  0  0  0  0  0  0  0  0  0
   26.0762    8.5155   14.9346 C   0  0  1  0  0  0  0  0  0  0  0  0
  5  4  1  6  0  0  0
  5  8  1  0  0  0  0
  5 16  1  0  0  0  0
  8  7  1  6  0  0  0
  8 10  1  0  0  0  0
 10  1  1  6  0  0  0
 10 12  1  0  0  0  0
 11 18  1  0  0  0  0
 12 14  1  0  0  0  0
 14  2  1  1  0  0  0
 14 16  1  0  0  0  0
 16  9  1  1  0  0  0
 17  9  1  1  0  0  0
 17 11  1  0  0  0  0
 17 22  1  0  0  0  0
 18 19  1  6  0  0  0
 18 20  1  0  0  0  0
 19  3  1  0  0  0  0
 20 13  1  1  0  0  0
 20 21  1  0  0  0  0
 21 15  1  6  0  0  0
 21 22  1  0  0  0  0
 22  6  1  1  0  0  0
M  END
>  <CHROM.1>
78.67693037,68.23533540,167.12107441,28.55824105,9.54367812,15.05538221,-0.98895063
0.30926230,2.25921597

>  <Name>
2fcx_lig

>  <RI>
3.23342e+07

>  <Rbt.Current_Directory>
/home/itssahil/PROJECTS/Mol_Feturizer/New_Systems/rnas/2fcx

>  <Rbt.Executable>
rbdock ($Id: //depot/dev/client3/rdock/2013.1/src/exe/rbdock.cxx#4 $)

>  <Rbt.Library>
libRbt.so (2013.1, Build901 2013/11/27)

>  <Rbt.Parameter_File>
/export/apps/rDock/src/rDock_2013.1_src/data/scripts/dock_solv.prm

>  <Rbt.Receptor>
prm/pocket_docking_5.prm

>  <SCORE>
-15.8555

>  <SCORE.INTER>
-15.0976

>  <SCORE.INTER.CONST>
1

>  <SCORE.INTER.POLAR>
-0.916515

>  <SCORE.INTER.ROT>
3

>  <SCORE.INTER.SOLV>
14.1462

>  <SCORE.INTER.VDW>
-17.3254

>  <SCORE.INTER.norm>
-0.686254

>  <SCORE.INTRA>
-0.757917

>  <SCORE.INTRA.DIHEDRAL>
-2.37689

>  <SCORE.INTRA.DIHEDRAL.0>
4.88619

>  <SCORE.INTRA.POLAR>
0

>  <SCORE.INTRA.POLAR.0>
0

>  <SCORE.INTRA.REPUL>
0

>  <SCORE.INTRA.REPUL.0>
0

>  <SCORE.INTRA.SOLV>
0.717549

>  <SCORE.INTRA.SOLV.lig_0>
-73.8187

>  <SCORE.INTRA.VDW>
0.0717537

>  <SCORE.INTRA.VDW.0>
-1.32335

>  <SCORE.INTRA.norm>
-0.0344508

>  <SCORE.RESTR>
0

>  <SCORE.RESTR.CAVITY>
0

>  <SCORE.RESTR.norm>
0

>  <SCORE.SYSTEM>
0

>  <SCORE.SYSTEM.CONST>
0

>  <SCORE.SYSTEM.DIHEDRAL>
0

>  <SCORE.SYSTEM.SOLV>
0

>  <SCORE.SYSTEM.norm>
0

>  <SCORE.heavy>
22

>  <SCORE.norm>
-0.720705

>  <RMSD>
0.611

$$$$
2fcx_lig
 OpenBabel11021811433D
libRbt.so/2013.1/901 2013/11/27
 22 23  0  0  0  0  0  0  0  0999 V2000
   32.2718   13.1861   13.0787 N   0  0  0  0  0  0  0  0  0  0  0  0
   30.1489   10.7234   16.7533 N   0  0  0  0  0  0  0  0  0  0  0  0
   29.4714    6.2867   18.1894 N   0  0  0  0  0  0  0  0  0  0  0  0
   28.6417   10.0516   12.1754 O   0  0  0  0  0  0  0  0  0  0  0  0
   29.1303   11.0261   13.1012 C   0  0  2  0  0  0  0  0  0  0  0  0
   25.2451    9.6502   14.4573 N   0  0  0  0  0  0  0  0  0  0  0  0
   30.1294   12.3237   11.3473 O   0  0  0  0  0  0  0  0  0  0  0  0
   30.4268   11.6445   12.5729 C   0  0  1  0  0  0  0  0  0  0  0  0
   28.0418    9.9817   15.0132 O   0  0  0  0  0  0  0  0  0  0  0  0
   31.0033   12.6396   13.5827 C   0  0  1  0  0  0  0  0  0  0  0  0
   28.3680    7.6630   14.9179 O   0  0  0  0  0  0  0  0  0  0  0  0
   31.2514   11.9557   14.9314 C   0  0  0  0  0  0  0  0  0  0  0  0
   26.8712    7.1047   18.2539 O   0  0  0  0  0  0  0  0  0  0  0  0
   29.9316   11.3870   15.4601 C   0  0  1  0  0  0  0  0  0  0  0  0
   24.6529    8.0926   16.7934 O   0  0  0  0  0  0  0  0  0  0  0  0
   29.3153   10.3832   14.4811 C   0  0  2  0  0  0  0  0  0  0  0  0
   27.5480    8.7519   14.4549 C   0  0  1  0  0  0  0  0  0  0  0  0
   28.3335    7.4678   16.3460 C   0  0  2  0  0  0  0  0  0  0  0  0
   29.2015    6.2719   16.7439 C   0  0  0  0  0  0  0  0  0  0  0  0
   26.9036    7.2069   16.8270 C   0  0  2  0  0  0  0  0  0  0  0  0
   25.9994    8.3644   16.4002 C   0  0  1  0  0  0  0  0  0  0  0  0
   26.0920    8.5269   14.8806 C   0  0  1  0  0  0  0  0  0  0  0  0
  5  4  1  6  0  0  0
  5  8  1  0  0  0  0
  5 16  1  0  0  0  0
  8  7  1  6  0  0  0
  8 10  1  0  0  0  0
 10  1  1  6  0  0  0
 10 12  1  0  0  0  0
 11 18  1  0  0  0  0
 12 14  1  0  0  0  0
 14  2  1  1  0  0  0
 14 16  1  0  0  0  0
 16  9  1  1  0  0  0
 17  9  1  1  0  0  0
 17 11  1  0  0  0  0
 17 22  1  0  0  0  0
 18 19  1  6  0  0  0
 18 20  1  0  0  0  0
 19  3  1  0  0  0  0
 20 13  1  1  0  0  0
 20 21  1  0  0  0  0
 21 15  1  6  0  0  0
 21 22  1  0  0  0  0
 22  6  1  1  0  0  0
M  END
>  <CHROM.1>
78.65689522,69.41267272,164.44404085,28.56296929,9.55713486,15.03089988,-0.98522753
0.31526692,2.26248333

>  <Name>
2fcx_lig

>  <RI>
0

>  <Rbt.Current_Directory>
/home/itssahil/PROJECTS/Mol_Feturizer/New_Systems/rnas/2fcx

>  <Rbt.Executable>
rbdock ($Id: //depot/dev/client3/rdock/2013.1/src/exe/rbdock.cxx#4 $)

>  <Rbt.Library>
libRbt.so (2013.1, Build901 2013/11/27)

>  <Rbt.Parameter_File>
/export/apps/rDock/src/rDock_2013.1_src/data/scripts/dock_solv.prm

>  <Rbt.Receptor>
prm/pocket_docking_6.prm

>  <SCORE>
-15.8673

>  <SCORE.INTER>
-15.1947

>  <SCORE.INTER.CONST>
1

>  <SCORE.INTER.POLAR>
-0.916515

>  <SCORE.INTER.ROT>
3

>  <SCORE.INTER.SOLV>
13.9991

>  <SCORE.INTER.VDW>
-17.3411

>  <SCORE.INTER.norm>
-0.690668

>  <SCORE.INTRA>
-0.672581

>  <SCORE.INTRA.DIHEDRAL>
-2.0302

>  <SCORE.INTRA.DIHEDRAL.0>
4.88619

>  <SCORE.INTRA.POLAR>
0

>  <SCORE.INTRA.POLAR.0>
0

>  <SCORE.INTRA.REPUL>
0

>  <SCORE.INTRA.REPUL.0>
0

>  <SCORE.INTRA.SOLV>
0.678842

>  <SCORE.INTRA.SOLV.lig_0>
-73.8187

>  <SCORE.INTRA.VDW>
0.00310068

>  <SCORE.INTRA.VDW.0>
-1.32335

>  <SCORE.INTRA.norm>
-0.0305718

>  <SCORE.RESTR>
0

>  <SCORE.RESTR.CAVITY>
0

>  <SCORE.RESTR.norm>
0

>  <SCORE.SYSTEM>
0

>  <SCORE.SYSTEM.CONST>
0

>  <SCORE.SYSTEM.DIHEDRAL>
0

>  <SCORE.SYSTEM.SOLV>
0

>  <SCORE.SYSTEM.norm>
0

>  <SCORE.heavy>
22

>  <SCORE.norm>
-0.72124

>  <RMSD>
0.614

$$$$
2fcx_lig
 OpenBabel11021811433D
libRbt.so/2013.1/901 2013/11/27
 22 23  0  0  0  0  0  0  0  0999 V2000
   32.2488   13.1526   13.0856 N   0  0  0  0  0  0  0  0  0  0  0  0
   30.0988   10.7704   16.7973 N   0  0  0  0  0  0  0  0  0  0  0  0
   29.4681    6.2588   18.2070 N   0  0  0  0  0  0  0  0  0  0  0  0
   28.6533    9.9677   12.2206 O   0  0  0  0  0  0  0  0  0  0  0  0
   29.1232   10.9698   13.1264 C   0  0  2  0  0  0  0  0  0  0  0  0
   25.2194    9.6328   14.5124 N   0  0  0  0  0  0  0  0  0  0  0  0
   30.1343   12.2289   11.3515 O   0  0  0  0  0  0  0  0  0  0  0  0
   30.4216   11.5842   12.5980 C   0  0  1  0  0  0  0  0  0  0  0  0
   28.0190    9.9674   15.0517 O   0  0  0  0  0  0  0  0  0  0  0  0
   30.9782   12.6098   13.5882 C   0  0  1  0  0  0  0  0  0  0  0  0
   28.3486    7.6496   14.9460 O   0  0  0  0  0  0  0  0  0  0  0  0
   31.2146   11.9632   14.9573 C   0  0  0  0  0  0  0  0  0  0  0  0
   26.8741    7.0767   18.2895 O   0  0  0  0  0  0  0  0  0  0  0  0
   29.8926   11.3983   15.4846 C   0  0  1  0  0  0  0  0  0  0  0  0
   24.6447    8.0658   16.8467 O   0  0  0  0  0  0  0  0  0  0  0  0
   29.2959   10.3646   14.5249 C   0  0  2  0  0  0  0  0  0  0  0  0
   27.5238    8.7387   14.4922 C   0  0  1  0  0  0  0  0  0  0  0  0
   28.3236    7.4492   16.3737 C   0  0  2  0  0  0  0  0  0  0  0  0
   29.1962    6.2535   16.7618 C   0  0  0  0  0  0  0  0  0  0  0  0
   26.8972    7.1840   16.8628 C   0  0  2  0  0  0  0  0  0  0  0  0
   25.9882    8.3414   16.4458 C   0  0  1  0  0  0  0  0  0  0  0  0
   26.0710    8.5095   14.9264 C   0  0  1  0  0  0  0  0  0  0  0  0
  5  4  1  6  0  0  0
  5  8  1  0  0  0  0
  5 16  1  0  0  0  0
  8  7  1  6  0  0  0
  8 10  1  0  0  0  0
 10  1  1  6  0  0  0
 10 12  1  0  0  0  0
 11 18  1  0  0  0  0
 12 14  1  0  0  0  0
 14  2  1  1  0  0  0
 14 16  1  0  0  0  0
 16  9  1  1  0  0  0
 17  9  1  1  0  0  0
 17 11  1  0  0  0  0
 17 22  1  0  0  0  0
 18 19  1  6  0  0  0
 18 20  1  0  0  0  0
 19  3  1  0  0  0  0
 20 13  1  1  0  0  0
 20 21  1  0  0  0  0
 21 15  1  6  0  0  0
 21 22  1  0  0  0  0
 22  6  1  1  0  0  0
M  END
>  <CHROM.1>
77.01341605,68.69927778,164.80948333,28.54780050,9.53130590,15.06230778,-0.98392699
0.31542161,2.25792072

>  <Name>
2fcx_lig

>  <RI>
1.55453e+07

>  <Rbt.Current_Directory>
/home/itssahil/PROJECTS/Mol_Feturizer/New_Systems/rnas/2fcx

>  <Rbt.Executable>
rbdock ($Id: //depot/dev/client3/rdock/2013.1/src/exe/rbdock.cxx#4 $)

>  <Rbt.Library>
libRbt.so (2013.1, Build901 2013/11/27)

>  <Rbt.Parameter_File>
/export/apps/rDock/src/rDock_2013.1_src/data/scripts/dock_solv.prm

>  <Rbt.Receptor>
prm/pocket_docking_4.prm

>  <SCORE>
-15.8158

>  <SCORE.INTER>
-15.013

>  <SCORE.INTER.CONST>
1

>  <SCORE.INTER.POLAR>
-0.916515

>  <SCORE.INTER.ROT>
3

>  <SCORE.INTER.SOLV>
14.2309

>  <SCORE.INTER.VDW>
-17.2973

>  <SCORE.INTER.norm>
-0.682411

>  <SCORE.INTRA>
-0.802704

>  <SCORE.INTRA.DIHEDRAL>
-2.37696

>  <SCORE.INTRA.DIHEDRAL.0>
4.88619

>  <SCORE.INTRA.POLAR>
0

>  <SCORE.INTRA.POLAR.0>
0

>  <SCORE.INTRA.REPUL>
0

>  <SCORE.INTRA.REPUL.0>
0

>  <SCORE.INTRA.SOLV>
0.574515

>  <SCORE.INTRA.SOLV.lig_0>
-73.8187

>  <SCORE.INTRA.VDW>
0.0985192

>  <SCORE.INTRA.VDW.0>
-1.32335

>  <SCORE.INTRA.norm>
-0.0364865

>  <SCORE.RESTR>
0

>  <SCORE.RESTR.CAVITY>
0

>  <SCORE.RESTR.norm>
0

>  <SCORE.SYSTEM>
0

>  <SCORE.SYSTEM.CONST>
0

>  <SCORE.SYSTEM.DIHEDRAL>
0

>  <SCORE.SYSTEM.SOLV>
0

>  <SCORE.SYSTEM.norm>
0

>  <SCORE.heavy>
22

>  <SCORE.norm>
-0.718898

>  <RMSD>
0.616

$$$$
2fcx_lig
 OpenBabel11021811433D
libRbt.so/2013.1/901 2013/11/27
 22 23  0  0  0  0  0  0  0  0999 V2000
   32.2340   13.0935   13.0748 N   0  0  0  0  0  0  0  0  0  0  0  0
   29.9975   10.7340   16.7497 N   0  0  0  0  0  0  0  0  0  0  0  0
   29.5151    6.3322   18.1118 N   0  0  0  0  0  0  0  0  0  0  0  0
   28.5764    9.9961   12.1545 O   0  0  0  0  0  0  0  0  0  0  0  0
   29.0603   10.9811   13.0717 C   0  0  2  0  0  0  0  0  0  0  0  0
   25.1068    9.6197   14.5213 N   0  0  0  0  0  0  0  0  0  0  0  0
   30.1155   12.2296   11.3151 O   0  0  0  0  0  0  0  0  0  0  0  0
   30.3768   11.5699   12.5594 C   0  0  1  0  0  0  0  0  0  0  0  0
   27.9163    9.9901   14.9797 O   0  0  0  0  0  0  0  0  0  0  0  0
   30.9471   12.5757   13.5620 C   0  0  1  0  0  0  0  0  0  0  0  0
   28.2699    7.6756   14.8794 O   0  0  0  0  0  0  0  0  0  0  0  0
   31.1565   11.9144   14.9285 C   0  0  0  0  0  0  0  0  0  0  0  0
   26.8964    7.1079   18.2665 O   0  0  0  0  0  0  0  0  0  0  0  0
   29.8174   11.3757   15.4398 C   0  0  1  0  0  0  0  0  0  0  0  0
   24.6161    8.0618   16.8806 O   0  0  0  0  0  0  0  0  0  0  0  0
   29.2066   10.3623   14.4673 C   0  0  2  0  0  0  0  0  0  0  0  0
   27.4201    8.7521   14.4421 C   0  0  1  0  0  0  0  0  0  0  0  0
   28.2873    7.4844   16.3084 C   0  0  2  0  0  0  0  0  0  0  0  0
   29.1843    6.3014   16.6793 C   0  0  0  0  0  0  0  0  0  0  0  0
   26.8783    7.2061   16.8390 C   0  0  2  0  0  0  0  0  0  0  0  0
   25.9445    8.3502   16.4405 C   0  0  1  0  0  0  0  0  0  0  0  0
   25.9827    8.5092   14.9183 C   0  0  1  0  0  0  0  0  0  0  0  0
  5  4  1  6  0  0  0
  5  8  1  0  0  0  0
  5 16  1  0  0  0  0
  8  7  1  6  0  0  0
  8 10  1  0  0  0  0
 10  1  1  6  0  0  0
 10 12  1  0  0  0  0
 11 18  1  0  0  0  0
 12 14  1  0  0  0  0
 14  2  1  1  0  0  0
 14 16  1  0  0  0  0
 16  9  1  1  0  0  0
 17  9  1  1  0  0  0
 17 11  1  0  0  0  0
 17 22  1  0  0  0  0
 18 19  1  6  0  0  0
 18 20  1  0  0  0  0
 19  3  1  0  0  0  0
 20 13  1  1  0  0  0
 20 21  1  0  0  0  0
 21 15  1  6  0  0  0
 21 22  1  0  0  0  0
 22  6  1  1  0  0  0
M  END
>  <CHROM.1>
79.09268143,65.56864905,163.84906219,28.49687850,9.53581575,15.02314442,-0.98075076
0.30344350,2.25596232

>  <Name>
2fcx_lig

>  <RI>
1.21945e+07

>  <Rbt.Current_Directory>
/home/itssahil/PROJECTS/Mol_Feturizer/New_Systems/rnas/2fcx

>  <Rbt.Executable>
rbdock ($Id: //depot/dev/client3/rdock/2013.1/src/exe/rbdock.cxx#4 $)

>  <Rbt.Library>
libRbt.so (2013.1, Build901 2013/11/27)

>  <Rbt.Parameter_File>
/export/apps/rDock/src/rDock_2013.1_src/data/scripts/dock_solv.prm

>  <Rbt.Receptor>
prm/pocket_docking_3.prm

>  <SCORE>
-15.8469

>  <SCORE.INTER>
-15.0254

>  <SCORE.INTER.CONST>
1

>  <SCORE.INTER.POLAR>
-0.916515

>  <SCORE.INTER.ROT>
3

>  <SCORE.INTER.SOLV>
14.0427

>  <SCORE.INTER.VDW>
-17.2428

>  <SCORE.INTER.norm>
-0.682975

>  <SCORE.INTRA>
-0.82145

>  <SCORE.INTRA.DIHEDRAL>
-2.17724

>  <SCORE.INTRA.DIHEDRAL.0>
4.88619

>  <SCORE.INTRA.POLAR>
0

>  <SCORE.INTRA.POLAR.0>
0

>  <SCORE.INTRA.REPUL>
0

>  <SCORE.INTRA.REPUL.0>
0

>  <SCORE.INTRA.SOLV>
0.602272

>  <SCORE.INTRA.SOLV.lig_0>
-73.8187

>  <SCORE.INTRA.VDW>
-0.0339647

>  <SCORE.INTRA.VDW.0>
-1.32335

>  <SCORE.INTRA.norm>
-0.0373386

>  <SCORE.RESTR>
0

>  <SCORE.RESTR.CAVITY>
0

>  <SCORE.RESTR.norm>
0

>  <SCORE.SYSTEM>
0

>  <SCORE.SYSTEM.CONST>
0

>  <SCORE.SYSTEM.DIHEDRAL>
0

>  <SCORE.SYSTEM.SOLV>
0

>  <SCORE.SYSTEM.norm>
0

>  <SCORE.heavy>
22

>  <SCORE.norm>
-0.720313

>  <RMSD>
0.622

$$$$
2fcx_lig
 OpenBabel11021811433D
libRbt.so/2013.1/901 2013/11/27
 22 23  0  0  0  0  0  0  0  0999 V2000
   32.2762   13.1435   13.0456 N   0  0  0  0  0  0  0  0  0  0  0  0
   30.0804   10.9237   16.8306 N   0  0  0  0  0  0  0  0  0  0  0  0
   29.4539    6.2751   18.3271 N   0  0  0  0  0  0  0  0  0  0  0  0
   28.8163    9.7898   12.2703 O   0  0  0  0  0  0  0  0  0  0  0  0
   29.2230   10.8617   13.1254 C   0  0  2  0  0  0  0  0  0  0  0  0
   25.3057    9.5771   14.4675 N   0  0  0  0  0  0  0  0  0  0  0  0
   30.2522   12.0422   11.3073 O   0  0  0  0  0  0  0  0  0  0  0  0
   30.5179   11.4862   12.6005 C   0  0  1  0  0  0  0  0  0  0  0  0
   28.0874    9.9432   15.0743 O   0  0  0  0  0  0  0  0  0  0  0  0
   31.0076   12.5896   13.5411 C   0  0  1  0  0  0  0  0  0  0  0  0
   28.4383    7.6270   15.0126 O   0  0  0  0  0  0  0  0  0  0  0  0
   31.2185   12.0377   14.9551 C   0  0  0  0  0  0  0  0  0  0  0  0
   26.8814    7.0921   18.3250 O   0  0  0  0  0  0  0  0  0  0  0  0
   29.8984   11.4616   15.4750 C   0  0  1  0  0  0  0  0  0  0  0  0
   24.6827    8.0407   16.8096 O   0  0  0  0  0  0  0  0  0  0  0  0
   29.3680   10.3506   14.5640 C   0  0  2  0  0  0  0  0  0  0  0  0
   27.6170    8.7022   14.5209 C   0  0  1  0  0  0  0  0  0  0  0  0
   28.3775    7.4480   16.4420 C   0  0  2  0  0  0  0  0  0  0  0  0
   29.2492    6.2656   16.8710 C   0  0  0  0  0  0  0  0  0  0  0  0
   26.9410    7.1782   16.8979 C   0  0  2  0  0  0  0  0  0  0  0  0
   26.0340    8.3215   16.4397 C   0  0  1  0  0  0  0  0  0  0  0  0
   26.1551    8.4674   14.9205 C   0  0  1  0  0  0  0  0  0  0  0  0
  5  4  1  6  0  0  0
  5  8  1  0  0  0  0
  5 16  1  0  0  0  0
  8  7  1  6  0  0  0
  8 10  1  0  0  0  0
 10  1  1  6  0  0  0
 10 12  1  0  0  0  0
 11 18  1  0  0  0  0
 12 14  1  0  0  0  0
 14  2  1  1  0  0  0
 14 16  1  0  0  0  0
 16  9  1  1  0  0  0
 17  9  1  1  0  0  0
 17 11  1  0  0  0  0
 17 22  1  0  0  0  0
 18 19  1  6  0  0  0
 18 20  1  0  0  0  0
 19  3  1  0  0  0  0
 20 13  1  1  0  0  0
 20 21  1  0  0  0  0
 21 15  1  6  0  0  0
 21 22  1  0  0  0  0
 22  6  1  1  0  0  0
M  END
>  <CHROM.1>
73.71778872,69.33710801,166.29499147,28.60519514,9.50636746,15.07939684,-0.97441810
0.34286550,2.22699545

>  <Name>
2fcx_lig

>  <RI>
1.21945e+07

>  <Rbt.Current_Directory>
/home/itssahil/PROJECTS/Mol_Feturizer/New_Systems/rnas/2fcx

>  <Rbt.Executable>
rbdock ($Id: //depot/dev/client3/rdock/2013.1/src/exe/rbdock.cxx#4 $)

>  <Rbt.Library>
libRbt.so (2013.1, Build901 2013/11/27)

>  <Rbt.Parameter_File>
/export/apps/rDock/src/rDock_2013.1_src/data/scripts/dock_solv.prm

>  <Rbt.Receptor>
prm/pocket_docking_3.prm

>  <SCORE>
-15.6644

>  <SCORE.INTER>
-14.7688

>  <SCORE.INTER.CONST>
1

>  <SCORE.INTER.POLAR>
-0.91838

>  <SCORE.INTER.ROT>
3

>  <SCORE.INTER.SOLV>
14.2876

>  <SCORE.INTER.VDW>
-17.1472

>  <SCORE.INTER.norm>
-0.67131

>  <SCORE.INTRA>
-0.895619

>  <SCORE.INTRA.DIHEDRAL>
-2.9104

>  <SCORE.INTRA.DIHEDRAL.0>
4.88619

>  <SCORE.INTRA.POLAR>
0

>  <SCORE.INTRA.POLAR.0>
0

>  <SCORE.INTRA.REPUL>
0

>  <SCORE.INTRA.REPUL.0>
0

>  <SCORE.INTRA.SOLV>
0.449868

>  <SCORE.INTRA.SOLV.lig_0>
-73.8187

>  <SCORE.INTRA.VDW>
0.334648

>  <SCORE.INTRA.VDW.0>
-1.32335

>  <SCORE.INTRA.norm>
-0.04071

>  <SCORE.RESTR>
0

>  <SCORE.RESTR.CAVITY>
0

>  <SCORE.RESTR.norm>
0

>  <SCORE.SYSTEM>
0

>  <SCORE.SYSTEM.CONST>
0

>  <SCORE.SYSTEM.DIHEDRAL>
0

>  <SCORE.SYSTEM.SOLV>
0

>  <SCORE.SYSTEM.norm>
0

>  <SCORE.heavy>
22

>  <SCORE.norm>
-0.71202

>  <RMSD>
0.630

$$$$
2fcx_lig
 OpenBabel11021811433D
libRbt.so/2013.1/901 2013/11/27
 22 23  0  0  0  0  0  0  0  0999 V2000
   32.2454   13.1857   13.1212 N   0  0  0  0  0  0  0  0  0  0  0  0
   30.0585   10.7815   16.7971 N   0  0  0  0  0  0  0  0  0  0  0  0
   29.4337    6.2592   18.1553 N   0  0  0  0  0  0  0  0  0  0  0  0
   28.6590   10.0059   12.2014 O   0  0  0  0  0  0  0  0  0  0  0  0
   29.1198   11.0027   13.1178 C   0  0  2  0  0  0  0  0  0  0  0  0
   25.2007    9.6597   14.4628 N   0  0  0  0  0  0  0  0  0  0  0  0
   30.1485   12.2722   11.3605 O   0  0  0  0  0  0  0  0  0  0  0  0
   30.4233   11.6201   12.6060 C   0  0  1  0  0  0  0  0  0  0  0  0
   27.9963    9.9888   15.0259 O   0  0  0  0  0  0  0  0  0  0  0  0
   30.9699   12.6398   13.6079 C   0  0  1  0  0  0  0  0  0  0  0  0
   28.3265    7.6721   14.9014 O   0  0  0  0  0  0  0  0  0  0  0  0
   31.1926   11.9852   14.9754 C   0  0  0  0  0  0  0  0  0  0  0  0
   26.8271    7.0686   18.2284 O   0  0  0  0  0  0  0  0  0  0  0  0
   29.8654   11.4172   15.4861 C   0  0  1  0  0  0  0  0  0  0  0  0
   24.6086    8.0714   16.7782 O   0  0  0  0  0  0  0  0  0  0  0  0
   29.2785   10.3892   14.5143 C   0  0  2  0  0  0  0  0  0  0  0  0
   27.5052    8.7654   14.4515 C   0  0  1  0  0  0  0  0  0  0  0  0
   28.2908    7.4586   16.3269 C   0  0  2  0  0  0  0  0  0  0  0  0
   29.1604    6.2592   16.7104 C   0  0  0  0  0  0  0  0  0  0  0  0
   26.8608    7.1891   16.8029 C   0  0  2  0  0  0  0  0  0  0  0  0
   25.9551    8.3505   16.3899 C   0  0  1  0  0  0  0  0  0  0  0  0
   26.0491    8.5325   14.8727 C   0  0  1  0  0  0  0  0  0  0  0  0
  5  4  1  6  0  0  0
  5  8  1  0  0  0  0
  5 16  1  0  0  0  0
  8  7  1  6  0  0  0
  8 10  1  0  0  0  0
 10  1  1  6  0  0  0
 10 12  1  0  0  0  0
 11 18  1  0  0  0  0
 12 14  1  0  0  0  0
 14  2  1  1  0  0  0
 14 16  1  0  0  0  0
 16  9  1  1  0  0  0
 17  9  1  1  0  0  0
 17 11  1  0  0  0  0
 17 22  1  0  0  0  0
 18 19  1  6  0  0  0
 18 20  1  0  0  0  0
 19  3  1  0  0  0  0
 20 13  1  1  0  0  0
 20 21  1  0  0  0  0
 21 15  1  6  0  0  0
 21 22  1  0  0  0  0
 22  6  1  1  0  0  0
M  END
>  <CHROM.1>
76.84856672,68.57722298,164.19261424,28.52695993,9.55117205,15.03661454,-0.97635472
0.32012597,2.26399529

>  <Name>
2fcx_lig

>  <RI>
1.21945e+07

>  <Rbt.Current_Directory>
/home/itssahil/PROJECTS/Mol_Feturizer/New_Systems/rnas/2fcx

>  <Rbt.Executable>
rbdock ($Id: //depot/dev/client3/rdock/2013.1/src/exe/rbdock.cxx#4 $)

>  <Rbt.Library>
libRbt.so (2013.1, Build901 2013/11/27)

>  <Rbt.Parameter_File>
/export/apps/rDock/src/rDock_2013.1_src/data/scripts/dock_solv.prm

>  <Rbt.Receptor>
prm/pocket_docking_3.prm

>  <SCORE>
-15.8684

>  <SCORE.INTER>
-15.0628

>  <SCORE.INTER.CONST>
1

>  <SCORE.INTER.POLAR>
-0.916515

>  <SCORE.INTER.ROT>
3

>  <SCORE.INTER.SOLV>
14.1565

>  <SCORE.INTER.VDW>
-17.3057

>  <SCORE.INTER.norm>
-0.684674

>  <SCORE.INTRA>
-0.805547

>  <SCORE.INTRA.DIHEDRAL>
-2.34917

>  <SCORE.INTRA.DIHEDRAL.0>
4.88619

>  <SCORE.INTRA.POLAR>
0

>  <SCORE.INTRA.POLAR.0>
0

>  <SCORE.INTRA.REPUL>
0

>  <SCORE.INTRA.REPUL.0>
0

>  <SCORE.INTRA.SOLV>
0.547079

>  <SCORE.INTRA.SOLV.lig_0>
-73.8187

>  <SCORE.INTRA.VDW>
0.0954974

>  <SCORE.INTRA.VDW.0>
-1.32335

>  <SCORE.INTRA.norm>
-0.0366158

>  <SCORE.RESTR>
0

>  <SCORE.RESTR.CAVITY>
0

>  <SCORE.RESTR.norm>
0

>  <SCORE.SYSTEM>
0

>  <SCORE.SYSTEM.CONST>
0

>  <SCORE.SYSTEM.DIHEDRAL>
0

>  <SCORE.SYSTEM.SOLV>
0

>  <SCORE.SYSTEM.norm>
0

>  <SCORE.heavy>
22

>  <SCORE.norm>
-0.721289

>  <RMSD>
0.635

$$$$
2fcx_lig
 OpenBabel11021811433D
libRbt.so/2013.1/901 2013/11/27
 22 23  0  0  0  0  0  0  0  0999 V2000
   31.0949   13.0162   11.4718 N   0  0  0  0  0  0  0  0  0  0  0  0
   29.8574   11.5418   15.9850 N   0  0  0  0  0  0  0  0  0  0  0  0
   30.6236    6.7646   17.0031 N   0  0  0  0  0  0  0  0  0  0  0  0
   28.4017    8.9953   12.1022 O   0  0  0  0  0  0  0  0  0  0  0  0
   28.6488   10.3155   12.5934 C   0  0  2  0  0  0  0  0  0  0  0  0
   25.1818    9.2628   14.3304 N   0  0  0  0  0  0  0  0  0  0  0  0
   29.1932   11.1269   10.4017 O   0  0  0  0  0  0  0  0  0  0  0  0
   29.7104   11.0033   11.7318 C   0  0  1  0  0  0  0  0  0  0  0  0
   27.9571    9.7674   14.8633 O   0  0  0  0  0  0  0  0  0  0  0  0
   30.0400   12.3921   12.2839 C   0  0  1  0  0  0  0  0  0  0  0  0
   28.3589    7.4722   15.1132 O   0  0  0  0  0  0  0  0  0  0  0  0
   30.5160   12.2950   13.7373 C   0  0  0  0  0  0  0  0  0  0  0  0
   26.8269    7.3576   18.4779 O   0  0  0  0  0  0  0  0  0  0  0  0
   29.4187   11.6469   14.5862 C   0  0  1  0  0  0  0  0  0  0  0  0
   24.6020    8.0448   16.8630 O   0  0  0  0  0  0  0  0  0  0  0  0
   29.0544   10.2514   14.0710 C   0  0  2  0  0  0  0  0  0  0  0  0
   27.5121    8.4530   14.4861 C   0  0  1  0  0  0  0  0  0  0  0  0
   28.3076    7.4872   16.5541 C   0  0  2  0  0  0  0  0  0  0  0  0
   29.2069    6.3927   17.1332 C   0  0  0  0  0  0  0  0  0  0  0  0
   26.8791    7.2508   17.0519 C   0  0  2  0  0  0  0  0  0  0  0  0
   25.9453    8.3018   16.4495 C   0  0  1  0  0  0  0  0  0  0  0  0
   26.0574    8.2432   14.9237 C   0  0  1  0  0  0  0  0  0  0  0  0
  5  4  1  6  0  0  0
  5  8  1  0  0  0  0
  5 16  1  0  0  0  0
  8  7  1  6  0  0  0
  8 10  1  0  0  0  0
 10  1  1  6  0  0  0
 10 12  1  0  0  0  0
 11 18  1  0  0  0  0
 12 14  1  0  0  0  0
 14  2  1  1  0  0  0
 14 16  1  0  0  0  0
 16  9  1  1  0  0  0
 17  9  1  1  0  0  0
 17 11  1  0  0  0  0
 17 22  1  0  0  0  0
 18 19  1  1  0  0  0
 18 20  1  0  0  0  0
 19  3  1  0  0  0  0
 20 13  1  1  0  0  0
 20 21  1  0  0  0  0
 21 15  1  6  0  0  0
 21 22  1  0  0  0  0
 22  6  1  6  0  0  0
M  END
>  <CHROM.1>
59.77699388,82.71179302,73.89864383,28.31194104,9.39866237,14.65133390,-1.12839749
0.25471150,2.18421328

>  <Name>
2fcx_lig

>  <RI>
1.55453e+07

>  <Rbt.Current_Directory>
/home/itssahil/PROJECTS/Mol_Feturizer/New_Systems/rnas/2fcx

>  <Rbt.Executable>
rbdock ($Id: //depot/dev/client3/rdock/2013.1/src/exe/rbdock.cxx#4 $)

>  <Rbt.Library>
libRbt.so (2013.1, Build901 2013/11/27)

>  <Rbt.Parameter_File>
/export/apps/rDock/src/rDock_2013.1_src/data/scripts/dock_solv.prm

>  <Rbt.Receptor>
prm/pocket_docking_4.prm

>  <SCORE>
-14.3965

>  <SCORE.INTER>
-14.4265

>  <SCORE.INTER.CONST>
1

>  <SCORE.INTER.POLAR>
-1.29718

>  <SCORE.INTER.ROT>
3

>  <SCORE.INTER.SOLV>
18.193

>  <SCORE.INTER.VDW>
-16.9581

>  <SCORE.INTER.norm>
-0.655751

>  <SCORE.INTRA>
0.0300314

>  <SCORE.INTRA.DIHEDRAL>
-1.95868

>  <SCORE.INTRA.DIHEDRAL.0>
4.88619

>  <SCORE.INTRA.POLAR>
0

>  <SCORE.INTRA.POLAR.0>
0

>  <SCORE.INTRA.REPUL>
0

>  <SCORE.INTRA.REPUL.0>
0

>  <SCORE.INTRA.SOLV>
-0.765029

>  <SCORE.INTRA.SOLV.lig_0>
-73.8187

>  <SCORE.INTRA.VDW>
1.39189

>  <SCORE.INTRA.VDW.0>
-1.32335

>  <SCORE.INTRA.norm>
0.00136506

>  <SCORE.RESTR>
0

>  <SCORE.RESTR.CAVITY>
0

>  <SCORE.RESTR.norm>
0

>  <SCORE.SYSTEM>
0

>  <SCORE.SYSTEM.CONST>
0

>  <SCORE.SYSTEM.DIHEDRAL>
0

>  <SCORE.SYSTEM.SOLV>
0

>  <SCORE.SYSTEM.norm>
0

>  <SCORE.heavy>
22

>  <SCORE.norm>
-0.654386

>  <RMSD>
0.693

$$$$
2fcx_lig
 OpenBabel11021811433D
libRbt.so/2013.1/901 2013/11/27
 22 23  0  0  0  0  0  0  0  0999 V2000
   31.2540   13.2571   11.6549 N   0  0  0  0  0  0  0  0  0  0  0  0
   29.8419   11.4804   16.0051 N   0  0  0  0  0  0  0  0  0  0  0  0
   29.6776    6.7545   18.2038 N   0  0  0  0  0  0  0  0  0  0  0  0
   28.2658    9.4059   11.8950 O   0  0  0  0  0  0  0  0  0  0  0  0
   28.6006   10.6550   12.5057 C   0  0  2  0  0  0  0  0  0  0  0  0
   25.0470    9.3712   14.3633 N   0  0  0  0  0  0  0  0  0  0  0  0
   29.2368   11.6167   10.4013 O   0  0  0  0  0  0  0  0  0  0  0  0
   29.7228   11.3368   11.7195 C   0  0  1  0  0  0  0  0  0  0  0  0
   27.8353    9.9587   14.7104 O   0  0  0  0  0  0  0  0  0  0  0  0
   30.1439   12.6425   12.3977 C   0  0  1  0  0  0  0  0  0  0  0  0
   28.3306    7.6731   14.8606 O   0  0  0  0  0  0  0  0  0  0  0  0
   30.5887   12.3809   13.8406 C   0  0  0  0  0  0  0  0  0  0  0  0
   27.0527    7.4099   18.3217 O   0  0  0  0  0  0  0  0  0  0  0  0
   29.4340   11.7424   14.6176 C   0  0  1  0  0  0  0  0  0  0  0  0
   24.6943    8.0628   16.8927 O   0  0  0  0  0  0  0  0  0  0  0  0
   28.9772   10.4292   13.9751 C   0  0  2  0  0  0  0  0  0  0  0  0
   27.4081    8.6405   14.3263 C   0  0  1  0  0  0  0  0  0  0  0  0
   28.3840    7.6458   16.3012 C   0  0  2  0  0  0  0  0  0  0  0  0
   29.3591    6.5681   16.7804 C   0  0  0  0  0  0  0  0  0  0  0  0
   27.0043    7.3451   16.8930 C   0  0  2  0  0  0  0  0  0  0  0  0
   25.9945    8.3788   16.3917 C   0  0  1  0  0  0  0  0  0  0  0  0
   25.9969    8.3670   14.8607 C   0  0  1  0  0  0  0  0  0  0  0  0
  5  4  1  6  0  0  0
  5  8  1  0  0  0  0
  5 16  1  0  0  0  0
  8  7  1  6  0  0  0
  8 10  1  0  0  0  0
 10  1  1  6  0  0  0
 10 12  1  0  0  0  0
 11 18  1  0  0  0  0
 12 14  1  0  0  0  0
 14  2  1  1  0  0  0
 14 16  1  0  0  0  0
 16  9  1  1  0  0  0
 17  9  1  1  0  0  0
 17 11  1  0  0  0  0
 17 22  1  0  0  0  0
 18 19  1  6  0  0  0
 18 20  1  0  0  0  0
 19  3  1  0  0  0  0
 20 13  1  1  0  0  0
 20 21  1  0  0  0  0
 21 15  1  1  0  0  0
 21 22  1  0  0  0  0
 22  6  1  6  0  0  0
M  END
>  <CHROM.1>
67.38789054,74.63262163,165.68913854,28.28759214,9.57041314,14.63559225,-1.13338556
0.36031838,2.15645584

>  <Name>
2fcx_lig

>  <RI>
1.21945e+07

>  <Rbt.Current_Directory>
/home/itssahil/PROJECTS/Mol_Feturizer/New_Systems/rnas/2fcx

>  <Rbt.Executable>
rbdock ($Id: //depot/dev/client3/rdock/2013.1/src/exe/rbdock.cxx#4 $)

>  <Rbt.Library>
libRbt.so (2013.1, Build901 2013/11/27)

>  <Rbt.Parameter_File>
/export/apps/rDock/src/rDock_2013.1_src/data/scripts/dock_solv.prm

>  <Rbt.Receptor>
prm/pocket_docking_3.prm

>  <SCORE>
-15.1304

>  <SCORE.INTER>
-14.6667

>  <SCORE.INTER.CONST>
1

>  <SCORE.INTER.POLAR>
-1.12088

>  <SCORE.INTER.ROT>
3

>  <SCORE.INTER.SOLV>
12.7083

>  <SCORE.INTER.VDW>
-15.8776

>  <SCORE.INTER.norm>
-0.666667

>  <SCORE.INTRA>
-0.463711

>  <SCORE.INTRA.DIHEDRAL>
-2.89356

>  <SCORE.INTRA.DIHEDRAL.0>
4.88619

>  <SCORE.INTRA.POLAR>
0

>  <SCORE.INTRA.POLAR.0>
0

>  <SCORE.INTRA.REPUL>
0

>  <SCORE.INTRA.REPUL.0>
0

>  <SCORE.INTRA.SOLV>
0.352648

>  <SCORE.INTRA.SOLV.lig_0>
-73.8187

>  <SCORE.INTRA.VDW>
0.806745

>  <SCORE.INTRA.VDW.0>
-1.32335

>  <SCORE.INTRA.norm>
-0.0210778

>  <SCORE.RESTR>
0

>  <SCORE.RESTR.CAVITY>
0

>  <SCORE.RESTR.norm>
0

>  <SCORE.SYSTEM>
0

>  <SCORE.SYSTEM.CONST>
0

>  <SCORE.SYSTEM.DIHEDRAL>
0

>  <SCORE.SYSTEM.SOLV>
0

>  <SCORE.SYSTEM.norm>
0

>  <SCORE.heavy>
22

>  <SCORE.norm>
-0.687745

>  <RMSD>
0.695

$$$$
2fcx_lig
 OpenBabel11021811433D
libRbt.so/2013.1/901 2013/11/27
 22 23  0  0  0  0  0  0  0  0999 V2000
   31.1585   13.1477   11.5276 N   0  0  0  0  0  0  0  0  0  0  0  0
   29.7907   11.5159   15.9482 N   0  0  0  0  0  0  0  0  0  0  0  0
   30.5469    6.9607   16.9159 N   0  0  0  0  0  0  0  0  0  0  0  0
   28.2646    9.2382   11.9279 O   0  0  0  0  0  0  0  0  0  0  0  0
   28.5691   10.5189   12.4868 C   0  0  2  0  0  0  0  0  0  0  0  0
   25.0418    9.3667   14.2333 N   0  0  0  0  0  0  0  0  0  0  0  0
   29.1814   11.4092   10.3443 O   0  0  0  0  0  0  0  0  0  0  0  0
   29.6743   11.1950   11.6721 C   0  0  1  0  0  0  0  0  0  0  0  0
   27.8214    9.8946   14.7189 O   0  0  0  0  0  0  0  0  0  0  0  0
   30.0638   12.5371   12.2961 C   0  0  1  0  0  0  0  0  0  0  0  0
   28.2501    7.6018   14.9445 O   0  0  0  0  0  0  0  0  0  0  0  0
   30.5150   12.3453   13.7479 C   0  0  0  0  0  0  0  0  0  0  0  0
   26.7813    7.4477   18.3357 O   0  0  0  0  0  0  0  0  0  0  0  0
   29.3763   11.7112   14.5516 C   0  0  1  0  0  0  0  0  0  0  0  0
   24.5206    8.1247   16.7670 O   0  0  0  0  0  0  0  0  0  0  0  0
   28.9514   10.3623   13.9637 C   0  0  2  0  0  0  0  0  0  0  0  0
   27.3824    8.5787   14.3403 C   0  0  1  0  0  0  0  0  0  0  0  0
   28.2251    7.6058   16.3861 C   0  0  2  0  0  0  0  0  0  0  0  0
   29.1455    6.5161   16.9404 C   0  0  0  0  0  0  0  0  0  0  0  0
   26.8084    7.3518   16.9083 C   0  0  2  0  0  0  0  0  0  0  0  0
   25.8535    8.3979   16.3308 C   0  0  1  0  0  0  0  0  0  0  0  0
   25.9380    8.3514   14.8029 C   0  0  1  0  0  0  0  0  0  0  0  0
  5  4  1  6  0  0  0
  5  8  1  0  0  0  0
  5 16  1  0  0  0  0
  8  7  1  6  0  0  0
  8 10  1  0  0  0  0
 10  1  1  6  0  0  0
 10 12  1  0  0  0  0
 11 18  1  0  0  0  0
 12 14  1  0  0  0  0
 14  2  1  1  0  0  0
 14 16  1  0  0  0  0
 16  9  1  1  0  0  0
 17  9  1  1  0  0  0
 17 11  1  0  0  0  0
 17 22  1  0  0  0  0
 18 19  1  1  0  0  0
 18 20  1  0  0  0  0
 19  3  1  0  0  0  0
 20 13  1  1  0  0  0
 20 21  1  0  0  0  0
 21 15  1  6  0  0  0
 21 22  1  0  0  0  0
 22  6  1  6  0  0  0
M  END
>  <CHROM.1>
64.30067640,79.16392611,79.78868645,28.24167399,9.52698644,14.55358754,-1.10900646
0.26881297,2.18539516

>  <Name>
2fcx_lig

>  <RI>
0

>  <Rbt.Current_Directory>
/home/itssahil/PROJECTS/Mol_Feturizer/New_Systems/rnas/2fcx

>  <Rbt.Executable>
rbdock ($Id: //depot/dev/client3/rdock/2013.1/src/exe/rbdock.cxx#4 $)

>  <Rbt.Library>
libRbt.so (2013.1, Build901 2013/11/27)

>  <Rbt.Parameter_File>
/export/apps/rDock/src/rDock_2013.1_src/data/scripts/dock_solv.prm

>  <Rbt.Receptor>
prm/pocket_docking_2.prm

>  <SCORE>
-14.4174

>  <SCORE.INTER>
-13.9981

>  <SCORE.INTER.CONST>
1

>  <SCORE.INTER.POLAR>
-1.21668

>  <SCORE.INTER.ROT>
3

>  <SCORE.INTER.SOLV>
17.3114

>  <SCORE.INTER.VDW>
-16.6469

>  <SCORE.INTER.norm>
-0.636278

>  <SCORE.INTRA>
-0.41923

>  <SCORE.INTRA.DIHEDRAL>
-1.83944

>  <SCORE.INTRA.DIHEDRAL.0>
4.88619

>  <SCORE.INTRA.POLAR>
0

>  <SCORE.INTRA.POLAR.0>
0

>  <SCORE.INTRA.REPUL>
0

>  <SCORE.INTRA.REPUL.0>
0

>  <SCORE.INTRA.SOLV>
-0.784159

>  <SCORE.INTRA.SOLV.lig_0>
-73.8187

>  <SCORE.INTRA.VDW>
0.892568

>  <SCORE.INTRA.VDW.0>
-1.32335

>  <SCORE.INTRA.norm>
-0.0190559

>  <SCORE.RESTR>
0

>  <SCORE.RESTR.CAVITY>
0

>  <SCORE.RESTR.norm>
0

>  <SCORE.SYSTEM>
0

>  <SCORE.SYSTEM.CONST>
0

>  <SCORE.SYSTEM.DIHEDRAL>
0

>  <SCORE.SYSTEM.SOLV>
0

>  <SCORE.SYSTEM.norm>
0

>  <SCORE.heavy>
22

>  <SCORE.norm>
-0.655334

>  <RMSD>
0.702

$$$$
2fcx_lig
 OpenBabel11021811433D
libRbt.so/2013.1/901 2013/11/27
 22 23  0  0  0  0  0  0  0  0999 V2000
   31.2512   13.2501   11.6550 N   0  0  0  0  0  0  0  0  0  0  0  0
   29.8442   11.4792   16.0092 N   0  0  0  0  0  0  0  0  0  0  0  0
   29.5557    6.5852   18.1302 N   0  0  0  0  0  0  0  0  0  0  0  0
   28.2596    9.4021   11.9037 O   0  0  0  0  0  0  0  0  0  0  0  0
   28.5966   10.6516   12.5126 C   0  0  2  0  0  0  0  0  0  0  0  0
   25.0306    9.4570   14.3587 N   0  0  0  0  0  0  0  0  0  0  0  0
   29.2305   11.6105   10.4063 O   0  0  0  0  0  0  0  0  0  0  0  0
   29.7183   11.3314   11.7239 C   0  0  1  0  0  0  0  0  0  0  0  0
   27.8341    9.9583   14.7192 O   0  0  0  0  0  0  0  0  0  0  0  0
   30.1417   12.6374   12.4001 C   0  0  1  0  0  0  0  0  0  0  0  0
   28.2668    7.6567   14.8057 O   0  0  0  0  0  0  0  0  0  0  0  0
   30.5885   12.3768   13.8426 C   0  0  0  0  0  0  0  0  0  0  0  0
   26.9829    7.3329   18.2594 O   0  0  0  0  0  0  0  0  0  0  0  0
   29.4344   11.7402   14.6221 C   0  0  1  0  0  0  0  0  0  0  0  0
   24.6429    8.0892   16.8514 O   0  0  0  0  0  0  0  0  0  0  0  0
   28.9753   10.4269   13.9816 C   0  0  2  0  0  0  0  0  0  0  0  0
   27.3709    8.6633   14.2992 C   0  0  1  0  0  0  0  0  0  0  0  0
   28.3197    7.5881   16.2449 C   0  0  2  0  0  0  0  0  0  0  0  0
   29.2651    6.4714   16.6932 C   0  0  0  0  0  0  0  0  0  0  0  0
   26.9324    7.3090   16.8296 C   0  0  2  0  0  0  0  0  0  0  0  0
   25.9512    8.3833   16.3579 C   0  0  1  0  0  0  0  0  0  0  0  0
   25.9529    8.4138   14.8273 C   0  0  1  0  0  0  0  0  0  0  0  0
  5  4  1  6  0  0  0
  5  8  1  0  0  0  0
  5 16  1  0  0  0  0
  8  7  1  6  0  0  0
  8 10  1  0  0  0  0
 10  1  1  6  0  0  0
 10 12  1  0  0  0  0
 11 18  1  0  0  0  0
 12 14  1  0  0  0  0
 14  2  1  1  0  0  0
 14 16  1  0  0  0  0
 16  9  1  1  0  0  0
 17  9  1  1  0  0  0
 17 11  1  0  0  0  0
 17 22  1  0  0  0  0
 18 19  1  6  0  0  0
 18 20  1  0  0  0  0
 19  3  1  0  0  0  0
 20 13  1  1  0  0  0
 20 21  1  0  0  0  0
 21 15  1  6  0  0  0
 21 22  1  0  0  0  0
 22  6  1  1  0  0  0
M  END
>  <CHROM.1>
64.95520678,75.56935321,167.44583033,28.25536381,9.55611572,14.61344989,-1.12756036
0.34118850,2.17481341

>  <Name>
2fcx_lig

>  <RI>
0

>  <Rbt.Current_Directory>
/home/itssahil/PROJECTS/Mol_Feturizer/New_Systems/rnas/2fcx

>  <Rbt.Executable>
rbdock ($Id: //depot/dev/client3/rdock/2013.1/src/exe/rbdock.cxx#4 $)

>  <Rbt.Library>
libRbt.so (2013.1, Build901 2013/11/27)

>  <Rbt.Parameter_File>
/export/apps/rDock/src/rDock_2013.1_src/data/scripts/dock_solv.prm

>  <Rbt.Receptor>
prm/pocket_docking_2.prm

>  <SCORE>
-15.2116

>  <SCORE.INTER>
-14.9088

>  <SCORE.INTER.CONST>
1

>  <SCORE.INTER.POLAR>
-1.12481

>  <SCORE.INTER.ROT>
3

>  <SCORE.INTER.SOLV>
13.2771

>  <SCORE.INTER.VDW>
-16.2155

>  <SCORE.INTER.norm>
-0.677672

>  <SCORE.INTRA>
-0.302825

>  <SCORE.INTRA.DIHEDRAL>
-3.07092

>  <SCORE.INTRA.DIHEDRAL.0>
4.88619

>  <SCORE.INTRA.POLAR>
0

>  <SCORE.INTRA.POLAR.0>
0

>  <SCORE.INTRA.REPUL>
0

>  <SCORE.INTRA.REPUL.0>
0

>  <SCORE.INTRA.SOLV>
0.331996

>  <SCORE.INTRA.SOLV.lig_0>
-73.8187

>  <SCORE.INTRA.VDW>
1.06664

>  <SCORE.INTRA.VDW.0>
-1.32335

>  <SCORE.INTRA.norm>
-0.0137648

>  <SCORE.RESTR>
0

>  <SCORE.RESTR.CAVITY>
0

>  <SCORE.RESTR.norm>
0

>  <SCORE.SYSTEM>
0

>  <SCORE.SYSTEM.CONST>
0

>  <SCORE.SYSTEM.DIHEDRAL>
0

>  <SCORE.SYSTEM.SOLV>
0

>  <SCORE.SYSTEM.norm>
0

>  <SCORE.heavy>
22

>  <SCORE.norm>
-0.691436

>  <RMSD>
0.707

$$$$
2fcx_lig
 OpenBabel11021811433D
libRbt.so/2013.1/901 2013/11/27
 22 23  0  0  0  0  0  0  0  0999 V2000
   31.1846   13.1956   11.5311 N   0  0  0  0  0  0  0  0  0  0  0  0
   29.7676   11.5494   15.9308 N   0  0  0  0  0  0  0  0  0  0  0  0
   29.5415    6.6033   18.0871 N   0  0  0  0  0  0  0  0  0  0  0  0
   28.2361    9.3225   11.8841 O   0  0  0  0  0  0  0  0  0  0  0  0
   28.5543   10.5948   12.4546 C   0  0  2  0  0  0  0  0  0  0  0  0
   24.9766    9.4602   14.3561 N   0  0  0  0  0  0  0  0  0  0  0  0
   29.1918   11.4928   10.3226 O   0  0  0  0  0  0  0  0  0  0  0  0
   29.6735   11.2621   11.6518 C   0  0  1  0  0  0  0  0  0  0  0  0
   27.7844    9.9640   14.6773 O   0  0  0  0  0  0  0  0  0  0  0  0
   30.0771   12.5941   12.2882 C   0  0  1  0  0  0  0  0  0  0  0  0
   28.2188    7.6631   14.7710 O   0  0  0  0  0  0  0  0  0  0  0  0
   30.5167   12.3854   13.7413 C   0  0  0  0  0  0  0  0  0  0  0  0
   26.9799    7.3583   18.2429 O   0  0  0  0  0  0  0  0  0  0  0  0
   29.3646   11.7607   14.5333 C   0  0  1  0  0  0  0  0  0  0  0  0
   24.6217    8.1064   16.8612 O   0  0  0  0  0  0  0  0  0  0  0  0
   28.9253   10.4221   13.9326 C   0  0  2  0  0  0  0  0  0  0  0  0
   27.3162    8.6667   14.2706 C   0  0  1  0  0  0  0  0  0  0  0  0
   28.2904    7.6025   16.2098 C   0  0  2  0  0  0  0  0  0  0  0  0
   29.2418    6.4885   16.6520 C   0  0  0  0  0  0  0  0  0  0  0  0
   26.9109    7.3264   16.8140 C   0  0  2  0  0  0  0  0  0  0  0  0
   25.9233    8.3980   16.3492 C   0  0  1  0  0  0  0  0  0  0  0  0
   25.9052    8.4199   14.8184 C   0  0  1  0  0  0  0  0  0  0  0  0
  5  4  1  6  0  0  0
  5  8  1  0  0  0  0
  5 16  1  0  0  0  0
  8  7  1  6  0  0  0
  8 10  1  0  0  0  0
 10  1  1  6  0  0  0
 10 12  1  0  0  0  0
 11 18  1  0  0  0  0
 12 14  1  0  0  0  0
 14  2  1  1  0  0  0
 14 16  1  0  0  0  0
 16  9  1  1  0  0  0
 17  9  1  1  0  0  0
 17 11  1  0  0  0  0
 17 22  1  0  0  0  0
 18 19  1  6  0  0  0
 18 20  1  0  0  0  0
 19  3  1  0  0  0  0
 20 13  1  1  0  0  0
 20 21  1  0  0  0  0
 21 15  1  6  0  0  0
 21 22  1  0  0  0  0
 22  6  1  1  0  0  0
M  END
>  <CHROM.1>
63.30361149,74.89834531,167.94911489,28.21304568,9.54748247,14.56618096,-1.13193046
0.33359946,2.16526767

>  <Name>
2fcx_lig

>  <RI>
0

>  <Rbt.Current_Directory>
/home/itssahil/PROJECTS/Mol_Feturizer/New_Systems/rnas/2fcx

>  <Rbt.Executable>
rbdock ($Id: //depot/dev/client3/rdock/2013.1/src/exe/rbdock.cxx#4 $)

>  <Rbt.Library>
libRbt.so (2013.1, Build901 2013/11/27)

>  <Rbt.Parameter_File>
/export/apps/rDock/src/rDock_2013.1_src/data/scripts/dock_solv.prm

>  <Rbt.Receptor>
prm/pocket_docking_2.prm

>  <SCORE>
-15.2124

>  <SCORE.INTER>
-14.9477

>  <SCORE.INTER.CONST>
1

>  <SCORE.INTER.POLAR>
-1.1933

>  <SCORE.INTER.ROT>
3

>  <SCORE.INTER.SOLV>
13.7018

>  <SCORE.INTER.VDW>
-16.1547

>  <SCORE.INTER.norm>
-0.67944

>  <SCORE.INTRA>
-0.264713

>  <SCORE.INTRA.DIHEDRAL>
-3.27005

>  <SCORE.INTRA.DIHEDRAL.0>
4.88619

>  <SCORE.INTRA.POLAR>
0

>  <SCORE.INTRA.POLAR.0>
0

>  <SCORE.INTRA.REPUL>
0

>  <SCORE.INTRA.REPUL.0>
0

>  <SCORE.INTRA.SOLV>
0.277781

>  <SCORE.INTRA.SOLV.lig_0>
-73.8187

>  <SCORE.INTRA.VDW>
1.23142

>  <SCORE.INTRA.VDW.0>
-1.32335

>  <SCORE.INTRA.norm>
-0.0120324

>  <SCORE.RESTR>
0

>  <SCORE.RESTR.CAVITY>
0

>  <SCORE.RESTR.norm>
0

>  <SCORE.SYSTEM>
0

>  <SCORE.SYSTEM.CONST>
0

>  <SCORE.SYSTEM.DIHEDRAL>
0

>  <SCORE.SYSTEM.SOLV>
0

>  <SCORE.SYSTEM.norm>
0

>  <SCORE.heavy>
22

>  <SCORE.norm>
-0.691473

>  <RMSD>
0.778

$$$$
2fcx_lig
 OpenBabel11021811433D
libRbt.so/2013.1/901 2013/11/27
 22 23  0  0  0  0  0  0  0  0999 V2000
   31.2056   13.2333   11.5602 N   0  0  0  0  0  0  0  0  0  0  0  0
   29.7520   11.5409   15.9303 N   0  0  0  0  0  0  0  0  0  0  0  0
   29.4999    6.6942   18.1186 N   0  0  0  0  0  0  0  0  0  0  0  0
   28.2082    9.3924   11.8461 O   0  0  0  0  0  0  0  0  0  0  0  0
   28.5400   10.6522   12.4362 C   0  0  2  0  0  0  0  0  0  0  0  0
   24.9539    9.4675   14.3037 N   0  0  0  0  0  0  0  0  0  0  0  0
   29.1965   11.5732   10.3199 O   0  0  0  0  0  0  0  0  0  0  0  0
   29.6704   11.3171   11.6473 C   0  0  1  0  0  0  0  0  0  0  0  0
   27.7541    9.9987   14.6468 O   0  0  0  0  0  0  0  0  0  0  0  0
   30.0879   12.6346   12.3045 C   0  0  1  0  0  0  0  0  0  0  0  0
   28.2062    7.7028   14.7748 O   0  0  0  0  0  0  0  0  0  0  0  0
   30.5195   12.3993   13.7560 C   0  0  0  0  0  0  0  0  0  0  0  0
   26.9345    7.4328   18.2377 O   0  0  0  0  0  0  0  0  0  0  0  0
   29.3568   11.7775   14.5346 C   0  0  1  0  0  0  0  0  0  0  0  0
   24.5844    8.1433   16.8225 O   0  0  0  0  0  0  0  0  0  0  0  0
   28.9033   10.4533   13.9128 C   0  0  2  0  0  0  0  0  0  0  0  0
   27.3006    8.6923   14.2523 C   0  0  1  0  0  0  0  0  0  0  0  0
   28.2636    7.6615   16.2149 C   0  0  2  0  0  0  0  0  0  0  0  0
   29.2195    6.5612   16.6812 C   0  0  0  0  0  0  0  0  0  0  0  0
   26.8803    7.3818   16.8087 C   0  0  2  0  0  0  0  0  0  0  0  0
   25.8889    8.4390   16.3200 C   0  0  1  0  0  0  0  0  0  0  0  0
   25.8862    8.4410   14.7890 C   0  0  1  0  0  0  0  0  0  0  0  0
  5  4  1  6  0  0  0
  5  8  1  0  0  0  0
  5 16  1  0  0  0  0
  8  7  1  6  0  0  0
  8 10  1  0  0  0  0
 10  1  1  6  0  0  0
 10 12  1  0  0  0  0
 11 18  1  0  0  0  0
 12 14  1  0  0  0  0
 14  2  1  1  0  0  0
 14 16  1  0  0  0  0
 16  9  1  1  0  0  0
 17  9  1  1  0  0  0
 17 11  1  0  0  0  0
 17 22  1  0  0  0  0
 18 19  1  6  0  0  0
 18 20  1  0  0  0  0
 19  3  1  0  0  0  0
 20 13  1  1  0  0  0
 20 21  1  0  0  0  0
 21 15  1  1  0  0  0
 21 22  1  0  0  0  0
 22  6  1  1  0  0  0
M  END
>  <CHROM.1>
65.41973119,74.56910045,168.14992943,28.19499670,9.59140261,14.55848504,-1.12438646
0.34492262,2.15587505

>  <Name>
2fcx_lig

>  <RI>
0

>  <Rbt.Current_Directory>
/home/itssahil/PROJECTS/Mol_Feturizer/New_Systems/rnas/2fcx

>  <Rbt.Executable>
rbdock ($Id: //depot/dev/client3/rdock/2013.1/src/exe/rbdock.cxx#4 $)

>  <Rbt.Library>
libRbt.so (2013.1, Build901 2013/11/27)

>  <Rbt.Parameter_File>
/export/apps/rDock/src/rDock_2013.1_src/data/scripts/dock_solv.prm

>  <Rbt.Receptor>
prm/pocket_docking_2.prm

>  <SCORE>
-15.2706

>  <SCORE.INTER>
-14.8665

>  <SCORE.INTER.CONST>
1

>  <SCORE.INTER.POLAR>
-1.16225

>  <SCORE.INTER.ROT>
3

>  <SCORE.INTER.SOLV>
13.1121

>  <SCORE.INTER.VDW>
-16.0075

>  <SCORE.INTER.norm>
-0.675749

>  <SCORE.INTRA>
-0.404139

>  <SCORE.INTRA.DIHEDRAL>
-3.23936

>  <SCORE.INTRA.DIHEDRAL.0>
4.88619

>  <SCORE.INTRA.POLAR>
0

>  <SCORE.INTRA.POLAR.0>
0

>  <SCORE.INTRA.REPUL>
0

>  <SCORE.INTRA.REPUL.0>
0

>  <SCORE.INTRA.SOLV>
0.337317

>  <SCORE.INTRA.SOLV.lig_0>
-73.8187

>  <SCORE.INTRA.VDW>
1.04688

>  <SCORE.INTRA.VDW.0>
-1.32335

>  <SCORE.INTRA.norm>
-0.0183699

>  <SCORE.RESTR>
0

>  <SCORE.RESTR.CAVITY>
0

>  <SCORE.RESTR.norm>
0

>  <SCORE.SYSTEM>
0

>  <SCORE.SYSTEM.CONST>
0

>  <SCORE.SYSTEM.DIHEDRAL>
0

>  <SCORE.SYSTEM.SOLV>
0

>  <SCORE.SYSTEM.norm>
0

>  <SCORE.heavy>
22

>  <SCORE.norm>
-0.694119

>  <RMSD>
0.778

$$$$
2fcx_lig
 OpenBabel11021811433D
libRbt.so/2013.1/901 2013/11/27
 22 23  0  0  0  0  0  0  0  0999 V2000
   31.1398   13.1998   11.4825 N   0  0  0  0  0  0  0  0  0  0  0  0
   29.7625   11.5846   15.9061 N   0  0  0  0  0  0  0  0  0  0  0  0
   29.7088    6.8300   18.2526 N   0  0  0  0  0  0  0  0  0  0  0  0
   28.2996    9.2522   11.8936 O   0  0  0  0  0  0  0  0  0  0  0  0
   28.5814   10.5418   12.4442 C   0  0  2  0  0  0  0  0  0  0  0  0
   25.0501    9.2755   14.3392 N   0  0  0  0  0  0  0  0  0  0  0  0
   29.1969   11.4233   10.2990 O   0  0  0  0  0  0  0  0  0  0  0  0
   29.6829   11.2271   11.6321 C   0  0  1  0  0  0  0  0  0  0  0  0
   27.8260    9.9250   14.6758 O   0  0  0  0  0  0  0  0  0  0  0  0
   30.0482   12.5798   12.2479 C   0  0  1  0  0  0  0  0  0  0  0  0
   28.3651    7.6537   14.8815 O   0  0  0  0  0  0  0  0  0  0  0  0
   30.4913   12.4064   13.7045 C   0  0  0  0  0  0  0  0  0  0  0  0
   27.0863    7.4488   18.3462 O   0  0  0  0  0  0  0  0  0  0  0  0
   29.3558   11.7624   14.5050 C   0  0  1  0  0  0  0  0  0  0  0  0
   24.7183    8.0215   16.8989 O   0  0  0  0  0  0  0  0  0  0  0  0
   28.9548   10.4028   13.9251 C   0  0  2  0  0  0  0  0  0  0  0  0
   27.4250    8.5899   14.3228 C   0  0  1  0  0  0  0  0  0  0  0  0
   28.4164    7.6619   16.3224 C   0  0  2  0  0  0  0  0  0  0  0  0
   29.4113    6.6151   16.8286 C   0  0  0  0  0  0  0  0  0  0  0  0
   27.0417    7.3488   16.9194 C   0  0  2  0  0  0  0  0  0  0  0  0
   26.0131    8.3505   16.3921 C   0  0  1  0  0  0  0  0  0  0  0  0
   26.0184    8.3021   14.8618 C   0  0  1  0  0  0  0  0  0  0  0  0
  5  4  1  6  0  0  0
  5  8  1  0  0  0  0
  5 16  1  0  0  0  0
  8  7  1  6  0  0  0
  8 10  1  0  0  0  0
 10  1  1  6  0  0  0
 10 12  1  0  0  0  0
 11 18  1  0  0  0  0
 12 14  1  0  0  0  0
 14  2  1  1  0  0  0
 14 16  1  0  0  0  0
 16  9  1  1  0  0  0
 17  9  1  1  0  0  0
 17 11  1  0  0  0  0
 17 22  1  0  0  0  0
 18 19  1  6  0  0  0
 18 20  1  0  0  0  0
 19  3  1  0  0  0  0
 20 13  1  1  0  0  0
 20 21  1  0  0  0  0
 21 15  1  1  0  0  0
 21 22  1  0  0  0  0
 22  6  1  6  0  0  0
M  END
>  <CHROM.1>
65.43885010,74.99404182,166.49969831,28.27691430,9.53667196,14.59857303,-1.14690133
0.37987929,2.13117506

>  <Name>
2fcx_lig

>  <RI>
0

>  <Rbt.Current_Directory>
/home/itssahil/PROJECTS/Mol_Feturizer/New_Systems/rnas/2fcx

>  <Rbt.Executable>
rbdock ($Id: //depot/dev/client3/rdock/2013.1/src/exe/rbdock.cxx#4 $)

>  <Rbt.Library>
libRbt.so (2013.1, Build901 2013/11/27)

>  <Rbt.Parameter_File>
/export/apps/rDock/src/rDock_2013.1_src/data/scripts/dock_solv.prm

>  <Rbt.Receptor>
prm/pocket_docking_2.prm

>  <SCORE>
-15.2747

>  <SCORE.INTER>
-14.9091

>  <SCORE.INTER.CONST>
1

>  <SCORE.INTER.POLAR>
-1.2146

>  <SCORE.INTER.ROT>
3

>  <SCORE.INTER.SOLV>
13.1421

>  <SCORE.INTER.VDW>
-15.8714

>  <SCORE.INTER.norm>
-0.677687

>  <SCORE.INTRA>
-0.365551

>  <SCORE.INTRA.DIHEDRAL>
-3.04157

>  <SCORE.INTRA.DIHEDRAL.0>
4.88619

>  <SCORE.INTRA.POLAR>
0

>  <SCORE.INTRA.POLAR.0>
0

>  <SCORE.INTRA.REPUL>
0

>  <SCORE.INTRA.REPUL.0>
0

>  <SCORE.INTRA.SOLV>
0.31074

>  <SCORE.INTRA.SOLV.lig_0>
-73.8187

>  <SCORE.INTRA.VDW>
0.999862

>  <SCORE.INTRA.VDW.0>
-1.32335

>  <SCORE.INTRA.norm>
-0.0166159

>  <SCORE.RESTR>
0

>  <SCORE.RESTR.CAVITY>
0

>  <SCORE.RESTR.norm>
0

>  <SCORE.SYSTEM>
0

>  <SCORE.SYSTEM.CONST>
0

>  <SCORE.SYSTEM.DIHEDRAL>
0

>  <SCORE.SYSTEM.SOLV>
0

>  <SCORE.SYSTEM.norm>
0

>  <SCORE.heavy>
22

>  <SCORE.norm>
-0.694303

>  <RMSD>
0.780

$$$$
2fcx_lig
 OpenBabel11021811433D
libRbt.so/2013.1/901 2013/11/27
 22 23  0  0  0  0  0  0  0  0999 V2000
   31.2237   13.2042   11.5593 N   0  0  0  0  0  0  0  0  0  0  0  0
   29.7470   11.5140   15.9224 N   0  0  0  0  0  0  0  0  0  0  0  0
   29.4905    6.6897   18.0988 N   0  0  0  0  0  0  0  0  0  0  0  0
   28.1928    9.3885   11.8301 O   0  0  0  0  0  0  0  0  0  0  0  0
   28.5342   10.6440   12.4239 C   0  0  2  0  0  0  0  0  0  0  0  0
   24.9357    9.4690   14.2966 N   0  0  0  0  0  0  0  0  0  0  0  0
   29.2028   11.5643   10.3110 O   0  0  0  0  0  0  0  0  0  0  0  0
   29.6718   11.3011   11.6387 C   0  0  1  0  0  0  0  0  0  0  0  0
   27.7384    9.9920   14.6313 O   0  0  0  0  0  0  0  0  0  0  0  0
   30.0994   12.6134   12.3000 C   0  0  1  0  0  0  0  0  0  0  0  0
   28.1839    7.6949   14.7597 O   0  0  0  0  0  0  0  0  0  0  0  0
   30.5261   12.3709   13.7517 C   0  0  0  0  0  0  0  0  0  0  0  0
   26.9212    7.4312   18.2263 O   0  0  0  0  0  0  0  0  0  0  0  0
   29.3566   11.7573   14.5265 C   0  0  1  0  0  0  0  0  0  0  0  0
   24.5693    8.1477   16.8173 O   0  0  0  0  0  0  0  0  0  0  0  0
   28.8929   10.4386   13.9007 C   0  0  2  0  0  0  0  0  0  0  0  0
   27.2799    8.6868   14.2390 C   0  0  1  0  0  0  0  0  0  0  0  0
   28.2453    7.6544   16.1997 C   0  0  2  0  0  0  0  0  0  0  0  0
   29.1992    6.5516   16.6641 C   0  0  0  0  0  0  0  0  0  0  0  0
   26.8629    7.3793   16.7975 C   0  0  2  0  0  0  0  0  0  0  0  0
   25.8732    8.4392   16.3109 C   0  0  1  0  0  0  0  0  0  0  0  0
   25.8662    8.4401   14.7799 C   0  0  1  0  0  0  0  0  0  0  0  0
  5  4  1  6  0  0  0
  5  8  1  0  0  0  0
  5 16  1  0  0  0  0
  8  7  1  6  0  0  0
  8 10  1  0  0  0  0
 10  1  1  6  0  0  0
 10 12  1  0  0  0  0
 11 18  1  0  0  0  0
 12 14  1  0  0  0  0
 14  2  1  1  0  0  0
 14 16  1  0  0  0  0
 16  9  1  1  0  0  0
 17  9  1  1  0  0  0
 17 11  1  0  0  0  0
 17 22  1  0  0  0  0
 18 19  1  6  0  0  0
 18 20  1  0  0  0  0
 19  3  1  0  0  0  0
 20 13  1  1  0  0  0
 20 21  1  0  0  0  0
 21 15  1  1  0  0  0
 21 22  1  0  0  0  0
 22  6  1  1  0  0  0
M  END
>  <CHROM.1>
65.81433887,74.13118967,167.80286775,28.18582170,9.58172746,14.54786416,-1.12044106
0.33990584,2.15478631

>  <Name>
2fcx_lig

>  <RI>
0

>  <Rbt.Current_Directory>
/home/itssahil/PROJECTS/Mol_Feturizer/New_Systems/rnas/2fcx

>  <Rbt.Executable>
rbdock ($Id: //depot/dev/client3/rdock/2013.1/src/exe/rbdock.cxx#4 $)

>  <Rbt.Library>
libRbt.so (2013.1, Build901 2013/11/27)

>  <Rbt.Parameter_File>
/export/apps/rDock/src/rDock_2013.1_src/data/scripts/dock_solv.prm

>  <Rbt.Receptor>
prm/pocket_docking_2.prm

>  <SCORE>
-15.3078

>  <SCORE.INTER>
-14.8535

>  <SCORE.INTER.CONST>
1

>  <SCORE.INTER.POLAR>
-1.16787

>  <SCORE.INTER.ROT>
3

>  <SCORE.INTER.SOLV>
13.2588

>  <SCORE.INTER.VDW>
-16.029

>  <SCORE.INTER.norm>
-0.67516

>  <SCORE.INTRA>
-0.454266

>  <SCORE.INTRA.DIHEDRAL>
-3.2458

>  <SCORE.INTRA.DIHEDRAL.0>
4.88619

>  <SCORE.INTRA.POLAR>
0

>  <SCORE.INTRA.POLAR.0>
0

>  <SCORE.INTRA.REPUL>
0

>  <SCORE.INTRA.REPUL.0>
0

>  <SCORE.INTRA.SOLV>
0.331143

>  <SCORE.INTRA.SOLV.lig_0>
-73.8187

>  <SCORE.INTRA.VDW>
1.00306

>  <SCORE.INTRA.VDW.0>
-1.32335

>  <SCORE.INTRA.norm>
-0.0206485

>  <SCORE.RESTR>
0

>  <SCORE.RESTR.CAVITY>
0

>  <SCORE.RESTR.norm>
0

>  <SCORE.SYSTEM>
0

>  <SCORE.SYSTEM.CONST>
0

>  <SCORE.SYSTEM.DIHEDRAL>
0

>  <SCORE.SYSTEM.SOLV>
0

>  <SCORE.SYSTEM.norm>
0

>  <SCORE.heavy>
22

>  <SCORE.norm>
-0.695808

>  <RMSD>
0.786

$$$$
2fcx_lig
 OpenBabel11021811433D
libRbt.so/2013.1/901 2013/11/27
 22 23  0  0  0  0  0  0  0  0999 V2000
   31.1557   13.1862   11.4927 N   0  0  0  0  0  0  0  0  0  0  0  0
   29.7415   11.5840   15.9094 N   0  0  0  0  0  0  0  0  0  0  0  0
   29.5975    6.7036   18.1591 N   0  0  0  0  0  0  0  0  0  0  0  0
   28.2649    9.2740   11.8890 O   0  0  0  0  0  0  0  0  0  0  0  0
   28.5607   10.5594   12.4420 C   0  0  2  0  0  0  0  0  0  0  0  0
   24.9942    9.3832   14.3417 N   0  0  0  0  0  0  0  0  0  0  0  0
   29.1954   11.4353   10.3000 O   0  0  0  0  0  0  0  0  0  0  0  0
   29.6737   11.2317   11.6348 C   0  0  1  0  0  0  0  0  0  0  0  0
   27.7892    9.9499   14.6700 O   0  0  0  0  0  0  0  0  0  0  0  0
   30.0536   12.5791   12.2533 C   0  0  1  0  0  0  0  0  0  0  0  0
   28.2686    7.6606   14.8152 O   0  0  0  0  0  0  0  0  0  0  0  0
   30.4889   12.3987   13.7114 C   0  0  0  0  0  0  0  0  0  0  0  0
   27.0126    7.4043   18.2848 O   0  0  0  0  0  0  0  0  0  0  0  0
   29.3424   11.7683   14.5069 C   0  0  1  0  0  0  0  0  0  0  0  0
   24.6493    8.0756   16.8726 O   0  0  0  0  0  0  0  0  0  0  0  0
   28.9267   10.4143   13.9241 C   0  0  2  0  0  0  0  0  0  0  0  0
   27.3496    8.6351   14.2879 C   0  0  1  0  0  0  0  0  0  0  0  0
   28.3317    7.6318   16.2554 C   0  0  2  0  0  0  0  0  0  0  0  0
   29.3021    6.5466   16.7271 C   0  0  0  0  0  0  0  0  0  0  0  0
   26.9539    7.3409   16.8565 C   0  0  2  0  0  0  0  0  0  0  0  0
   25.9484    8.3824   16.3628 C   0  0  1  0  0  0  0  0  0  0  0  0
   25.9402    8.3717   14.8319 C   0  0  1  0  0  0  0  0  0  0  0  0
  5  4  1  6  0  0  0
  5  8  1  0  0  0  0
  5 16  1  0  0  0  0
  8  7  1  6  0  0  0
  8 10  1  0  0  0  0
 10  1  1  6  0  0  0
 10 12  1  0  0  0  0
 11 18  1  0  0  0  0
 12 14  1  0  0  0  0
 14  2  1  1  0  0  0
 14 16  1  0  0  0  0
 16  9  1  1  0  0  0
 17  9  1  1  0  0  0
 17 11  1  0  0  0  0
 17 22  1  0  0  0  0
 18 19  1  6  0  0  0
 18 20  1  0  0  0  0
 19  3  1  0  0  0  0
 20 13  1  1  0  0  0
 20 21  1  0  0  0  0
 21 15  1  1  0  0  0
 21 22  1  0  0  0  0
 22  6  1  6  0  0  0
M  END
>  <CHROM.1>
63.78309016,74.82673929,167.53320775,28.22882775,9.54181389,14.57326140,-1.13706916
0.35359817,2.14720932

>  <Name>
2fcx_lig

>  <RI>
0

>  <Rbt.Current_Directory>
/home/itssahil/PROJECTS/Mol_Feturizer/New_Systems/rnas/2fcx

>  <Rbt.Executable>
rbdock ($Id: //depot/dev/client3/rdock/2013.1/src/exe/rbdock.cxx#4 $)

>  <Rbt.Library>
libRbt.so (2013.1, Build901 2013/11/27)

>  <Rbt.Parameter_File>
/export/apps/rDock/src/rDock_2013.1_src/data/scripts/dock_solv.prm

>  <Rbt.Receptor>
prm/pocket_docking_2.prm

>  <SCORE>
-15.3197

>  <SCORE.INTER>
-15.034

>  <SCORE.INTER.CONST>
1

>  <SCORE.INTER.POLAR>
-1.21668

>  <SCORE.INTER.ROT>
3

>  <SCORE.INTER.SOLV>
13.5159

>  <SCORE.INTER.VDW>
-16.0724

>  <SCORE.INTER.norm>
-0.683362

>  <SCORE.INTRA>
-0.285769

>  <SCORE.INTRA.DIHEDRAL>
-3.22835

>  <SCORE.INTRA.DIHEDRAL.0>
4.88619

>  <SCORE.INTRA.POLAR>
0

>  <SCORE.INTRA.POLAR.0>
0

>  <SCORE.INTRA.REPUL>
0

>  <SCORE.INTRA.REPUL.0>
0

>  <SCORE.INTRA.SOLV>
0.276944

>  <SCORE.INTRA.SOLV.lig_0>
-73.8187

>  <SCORE.INTRA.VDW>
1.18993

>  <SCORE.INTRA.VDW.0>
-1.32335

>  <SCORE.INTRA.norm>
-0.0129895

>  <SCORE.RESTR>
0

>  <SCORE.RESTR.CAVITY>
0

>  <SCORE.RESTR.norm>
0

>  <SCORE.SYSTEM>
0

>  <SCORE.SYSTEM.CONST>
0

>  <SCORE.SYSTEM.DIHEDRAL>
0

>  <SCORE.SYSTEM.SOLV>
0

>  <SCORE.SYSTEM.norm>
0

>  <SCORE.heavy>
22

>  <SCORE.norm>
-0.696352

>  <RMSD>
0.790

$$$$
2fcx_lig
 OpenBabel11021811433D
libRbt.so/2013.1/901 2013/11/27
 22 23  0  0  0  0  0  0  0  0999 V2000
   31.1882   13.2170   11.5281 N   0  0  0  0  0  0  0  0  0  0  0  0
   29.7325   11.5470   15.9061 N   0  0  0  0  0  0  0  0  0  0  0  0
   29.5866    6.7425   18.1227 N   0  0  0  0  0  0  0  0  0  0  0  0
   28.2276    9.3491   11.8337 O   0  0  0  0  0  0  0  0  0  0  0  0
   28.5444   10.6171   12.4146 C   0  0  2  0  0  0  0  0  0  0  0  0
   24.9635    9.3875   14.3092 N   0  0  0  0  0  0  0  0  0  0  0  0
   29.2009   11.5267   10.2933 O   0  0  0  0  0  0  0  0  0  0  0  0
   29.6716   11.2865   11.6248 C   0  0  1  0  0  0  0  0  0  0  0  0
   27.7554    9.9744   14.6272 O   0  0  0  0  0  0  0  0  0  0  0  0
   30.0733   12.6136   12.2727 C   0  0  1  0  0  0  0  0  0  0  0  0
   28.2512    7.6889   14.7773 O   0  0  0  0  0  0  0  0  0  0  0  0
   30.5009   12.3948   13.7279 C   0  0  0  0  0  0  0  0  0  0  0  0
   27.0077    7.4337   18.2515 O   0  0  0  0  0  0  0  0  0  0  0  0
   29.3410   11.7680   14.5068 C   0  0  1  0  0  0  0  0  0  0  0  0
   24.6354    8.0846   16.8448 O   0  0  0  0  0  0  0  0  0  0  0  0
   28.9032   10.4343   13.8943 C   0  0  2  0  0  0  0  0  0  0  0  0
   27.3238    8.6556   14.2501 C   0  0  1  0  0  0  0  0  0  0  0  0
   28.3189    7.6646   16.2173 C   0  0  2  0  0  0  0  0  0  0  0  0
   29.2982    6.5875   16.6891 C   0  0  0  0  0  0  0  0  0  0  0  0
   26.9450    7.3658   16.8235 C   0  0  2  0  0  0  0  0  0  0  0  0
   25.9308    8.3990   16.3301 C   0  0  1  0  0  0  0  0  0  0  0  0
   25.9179    8.3839   14.7992 C   0  0  1  0  0  0  0  0  0  0  0  0
  5  4  1  6  0  0  0
  5  8  1  0  0  0  0
  5 16  1  0  0  0  0
  8  7  1  6  0  0  0
  8 10  1  0  0  0  0
 10  1  1  6  0  0  0
 10 12  1  0  0  0  0
 11 18  1  0  0  0  0
 12 14  1  0  0  0  0
 14  2  1  1  0  0  0
 14 16  1  0  0  0  0
 16  9  1  1  0  0  0
 17  9  1  1  0  0  0
 17 11  1  0  0  0  0
 17 22  1  0  0  0  0
 18 19  1  6  0  0  0
 18 20  1  0  0  0  0
 19  3  1  0  0  0  0
 20 13  1  1  0  0  0
 20 21  1  0  0  0  0
 21 15  1  1  0  0  0
 21 22  1  0  0  0  0
 22  6  1  6  0  0  0
M  END
>  <CHROM.1>
65.94338834,73.69525830,168.09080313,28.21847627,9.56993031,14.55079432,-1.13193899
0.35522536,2.14858734

>  <Name>
2fcx_lig

>  <RI>
0

>  <Rbt.Current_Directory>
/home/itssahil/PROJECTS/Mol_Feturizer/New_Systems/rnas/2fcx

>  <Rbt.Executable>
rbdock ($Id: //depot/dev/client3/rdock/2013.1/src/exe/rbdock.cxx#4 $)

>  <Rbt.Library>
libRbt.so (2013.1, Build901 2013/11/27)

>  <Rbt.Parameter_File>
/export/apps/rDock/src/rDock_2013.1_src/data/scripts/dock_solv.prm

>  <Rbt.Receptor>
prm/pocket_docking_2.prm

>  <SCORE>
-15.2803

>  <SCORE.INTER>
-14.7888

>  <SCORE.INTER.CONST>
1

>  <SCORE.INTER.POLAR>
-1.18027

>  <SCORE.INTER.ROT>
3

>  <SCORE.INTER.SOLV>
13.1971

>  <SCORE.INTER.VDW>
-15.924

>  <SCORE.INTER.norm>
-0.672217

>  <SCORE.INTRA>
-0.491491

>  <SCORE.INTRA.DIHEDRAL>
-3.31667

>  <SCORE.INTRA.DIHEDRAL.0>
4.88619

>  <SCORE.INTRA.POLAR>
0

>  <SCORE.INTRA.POLAR.0>
0

>  <SCORE.INTRA.REPUL>
0

>  <SCORE.INTRA.REPUL.0>
0

>  <SCORE.INTRA.SOLV>
0.330414

>  <SCORE.INTRA.SOLV.lig_0>
-73.8187

>  <SCORE.INTRA.VDW>
1.00164

>  <SCORE.INTRA.VDW.0>
-1.32335

>  <SCORE.INTRA.norm>
-0.0223405

>  <SCORE.RESTR>
0

>  <SCORE.RESTR.CAVITY>
0

>  <SCORE.RESTR.norm>
0

>  <SCORE.SYSTEM>
0

>  <SCORE.SYSTEM.CONST>
0

>  <SCORE.SYSTEM.DIHEDRAL>
0

>  <SCORE.SYSTEM.SOLV>
0

>  <SCORE.SYSTEM.norm>
0

>  <SCORE.heavy>
22

>  <SCORE.norm>
-0.694558

>  <RMSD>
0.791

$$$$
2fcx_lig
 OpenBabel11021811433D
libRbt.so/2013.1/901 2013/11/27
 22 23  0  0  0  0  0  0  0  0999 V2000
   31.1565   13.1806   11.4762 N   0  0  0  0  0  0  0  0  0  0  0  0
   29.7400   11.5884   15.8958 N   0  0  0  0  0  0  0  0  0  0  0  0
   29.6682    6.7961   18.1783 N   0  0  0  0  0  0  0  0  0  0  0  0
   28.2711    9.2652   11.8802 O   0  0  0  0  0  0  0  0  0  0  0  0
   28.5644   10.5526   12.4300 C   0  0  2  0  0  0  0  0  0  0  0  0
   25.0029    9.3486   14.3343 N   0  0  0  0  0  0  0  0  0  0  0  0
   29.2001   11.4235   10.2862 O   0  0  0  0  0  0  0  0  0  0  0  0
   29.6773   11.2243   11.6221 C   0  0  1  0  0  0  0  0  0  0  0  0
   27.7914    9.9480   14.6589 O   0  0  0  0  0  0  0  0  0  0  0  0
   30.0545   12.5740   12.2373 C   0  0  1  0  0  0  0  0  0  0  0  0
   28.2940    7.6658   14.8339 O   0  0  0  0  0  0  0  0  0  0  0  0
   30.4886   12.3982   13.6965 C   0  0  0  0  0  0  0  0  0  0  0  0
   27.0358    7.4408   18.3048 O   0  0  0  0  0  0  0  0  0  0  0  0
   29.3422   11.7682   14.4925 C   0  0  1  0  0  0  0  0  0  0  0  0
   24.6678    8.0698   16.8812 O   0  0  0  0  0  0  0  0  0  0  0  0
   28.9291   10.4121   13.9129 C   0  0  2  0  0  0  0  0  0  0  0  0
   27.3659    8.6241   14.2930 C   0  0  1  0  0  0  0  0  0  0  0  0
   28.3554    7.6560   16.2744 C   0  0  2  0  0  0  0  0  0  0  0  0
   29.3362    6.5869   16.7611 C   0  0  0  0  0  0  0  0  0  0  0  0
   26.9798    7.3586   16.8774 C   0  0  2  0  0  0  0  0  0  0  0  0
   25.9644    8.3834   16.3692 C   0  0  1  0  0  0  0  0  0  0  0  0
   25.9584    8.3532   14.8385 C   0  0  1  0  0  0  0  0  0  0  0  0
  5  4  1  6  0  0  0
  5  8  1  0  0  0  0
  5 16  1  0  0  0  0
  8  7  1  6  0  0  0
  8 10  1  0  0  0  0
 10  1  1  6  0  0  0
 10 12  1  0  0  0  0
 11 18  1  0  0  0  0
 12 14  1  0  0  0  0
 14  2  1  1  0  0  0
 14 16  1  0  0  0  0
 16  9  1  1  0  0  0
 17  9  1  1  0  0  0
 17 11  1  0  0  0  0
 17 22  1  0  0  0  0
 18 19  1  6  0  0  0
 18 20  1  0  0  0  0
 19  3  1  0  0  0  0
 20 13  1  1  0  0  0
 20 21  1  0  0  0  0
 21 15  1  1  0  0  0
 21 22  1  0  0  0  0
 22  6  1  6  0  0  0
M  END
>  <CHROM.1>
64.61134286,74.55308996,165.34865982,28.24268155,9.54652423,14.57364014,-1.13871793
0.36159591,2.13740504

>  <Name>
2fcx_lig

>  <RI>
0

>  <Rbt.Current_Directory>
/home/itssahil/PROJECTS/Mol_Feturizer/New_Systems/rnas/2fcx

>  <Rbt.Executable>
rbdock ($Id: //depot/dev/client3/rdock/2013.1/src/exe/rbdock.cxx#4 $)

>  <Rbt.Library>
libRbt.so (2013.1, Build901 2013/11/27)

>  <Rbt.Parameter_File>
/export/apps/rDock/src/rDock_2013.1_src/data/scripts/dock_solv.prm

>  <Rbt.Receptor>
prm/pocket_docking_2.prm

>  <SCORE>
-15.2864

>  <SCORE.INTER>
-14.9457

>  <SCORE.INTER.CONST>
1

>  <SCORE.INTER.POLAR>
-1.22191

>  <SCORE.INTER.ROT>
3

>  <SCORE.INTER.SOLV>
13.3261

>  <SCORE.INTER.VDW>
-15.9328

>  <SCORE.INTER.norm>
-0.679351

>  <SCORE.INTRA>
-0.340642

>  <SCORE.INTRA.DIHEDRAL>
-3.03307

>  <SCORE.INTRA.DIHEDRAL.0>
4.88619

>  <SCORE.INTRA.POLAR>
0

>  <SCORE.INTRA.POLAR.0>
0

>  <SCORE.INTRA.REPUL>
0

>  <SCORE.INTRA.REPUL.0>
0

>  <SCORE.INTRA.SOLV>
0.240132

>  <SCORE.INTRA.SOLV.lig_0>
-73.8187

>  <SCORE.INTRA.VDW>
1.05583

>  <SCORE.INTRA.VDW.0>
-1.32335

>  <SCORE.INTRA.norm>
-0.0154837

>  <SCORE.RESTR>
0

>  <SCORE.RESTR.CAVITY>
0

>  <SCORE.RESTR.norm>
0

>  <SCORE.SYSTEM>
0

>  <SCORE.SYSTEM.CONST>
0

>  <SCORE.SYSTEM.DIHEDRAL>
0

>  <SCORE.SYSTEM.SOLV>
0

>  <SCORE.SYSTEM.norm>
0

>  <SCORE.heavy>
22

>  <SCORE.norm>
-0.694834

>  <RMSD>
0.792

$$$$
2fcx_lig
 OpenBabel11021811433D
libRbt.so/2013.1/901 2013/11/27
 22 23  0  0  0  0  0  0  0  0999 V2000
   31.2002   13.2259   11.5367 N   0  0  0  0  0  0  0  0  0  0  0  0
   29.7351   11.5542   15.9109 N   0  0  0  0  0  0  0  0  0  0  0  0
   29.4761    6.7388   18.1614 N   0  0  0  0  0  0  0  0  0  0  0  0
   28.2130    9.3779   11.8333 O   0  0  0  0  0  0  0  0  0  0  0  0
   28.5388   10.6420   12.4175 C   0  0  2  0  0  0  0  0  0  0  0  0
   24.9531    9.4391   14.2765 N   0  0  0  0  0  0  0  0  0  0  0  0
   29.2006   11.5528   10.2984 O   0  0  0  0  0  0  0  0  0  0  0  0
   29.6702   11.3058   11.6290 C   0  0  1  0  0  0  0  0  0  0  0  0
   27.7465    9.9987   14.6288 O   0  0  0  0  0  0  0  0  0  0  0  0
   30.0814   12.6282   12.2803 C   0  0  1  0  0  0  0  0  0  0  0  0
   28.2172    7.7088   14.7907 O   0  0  0  0  0  0  0  0  0  0  0  0
   30.5082   12.4025   13.7346 C   0  0  0  0  0  0  0  0  0  0  0  0
   26.9270    7.4748   18.2493 O   0  0  0  0  0  0  0  0  0  0  0  0
   29.3445   11.7817   14.5124 C   0  0  1  0  0  0  0  0  0  0  0  0
   24.5796    8.1461   16.8108 O   0  0  0  0  0  0  0  0  0  0  0  0
   28.8971   10.4526   13.8966 C   0  0  2  0  0  0  0  0  0  0  0  0
   27.3065    8.6834   14.2494 C   0  0  1  0  0  0  0  0  0  0  0  0
   28.2664    7.6874   16.2315 C   0  0  2  0  0  0  0  0  0  0  0  0
   29.2287    6.6017   16.7183 C   0  0  0  0  0  0  0  0  0  0  0  0
   26.8819    7.4040   16.8208 C   0  0  2  0  0  0  0  0  0  0  0  0
   25.8845    8.4461   16.3119 C   0  0  1  0  0  0  0  0  0  0  0  0
   25.8910    8.4273   14.7811 C   0  0  1  0  0  0  0  0  0  0  0  0
  5  4  1  6  0  0  0
  5  8  1  0  0  0  0
  5 16  1  0  0  0  0
  8  7  1  6  0  0  0
  8 10  1  0  0  0  0
 10  1  1  6  0  0  0
 10 12  1  0  0  0  0
 11 18  1  0  0  0  0
 12 14  1  0  0  0  0
 14  2  1  1  0  0  0
 14 16  1  0  0  0  0
 16  9  1  1  0  0  0
 17  9  1  1  0  0  0
 17 11  1  0  0  0  0
 17 22  1  0  0  0  0
 18 19  1  6  0  0  0
 18 20  1  0  0  0  0
 19  3  1  0  0  0  0
 20 13  1  1  0  0  0
 20 21  1  0  0  0  0
 21 15  1  1  0  0  0
 21 22  1  0  0  0  0
 22  6  1  6  0  0  0
M  END
>  <CHROM.1>
66.00735080,74.50432904,169.39047626,28.19212291,9.59554067,14.55231531,-1.12346178
0.35508128,2.14385629

>  <Name>
2fcx_lig

>  <RI>
0

>  <Rbt.Current_Directory>
/home/itssahil/PROJECTS/Mol_Feturizer/New_Systems/rnas/2fcx

>  <Rbt.Executable>
rbdock ($Id: //depot/dev/client3/rdock/2013.1/src/exe/rbdock.cxx#4 $)

>  <Rbt.Library>
libRbt.so (2013.1, Build901 2013/11/27)

>  <Rbt.Parameter_File>
/export/apps/rDock/src/rDock_2013.1_src/data/scripts/dock_solv.prm

>  <Rbt.Receptor>
prm/pocket_docking_2.prm

>  <SCORE>
-15.2956

>  <SCORE.INTER>
-14.8617

>  <SCORE.INTER.CONST>
1

>  <SCORE.INTER.POLAR>
-1.17238

>  <SCORE.INTER.ROT>
3

>  <SCORE.INTER.SOLV>
13.0048

>  <SCORE.INTER.VDW>
-15.9348

>  <SCORE.INTER.norm>
-0.675534

>  <SCORE.INTRA>
-0.433897

>  <SCORE.INTRA.DIHEDRAL>
-3.31056

>  <SCORE.INTRA.DIHEDRAL.0>
4.88619

>  <SCORE.INTRA.POLAR>
0

>  <SCORE.INTRA.POLAR.0>
0

>  <SCORE.INTRA.REPUL>
0

>  <SCORE.INTRA.REPUL.0>
0

>  <SCORE.INTRA.SOLV>
0.386461

>  <SCORE.INTRA.SOLV.lig_0>
-73.8187

>  <SCORE.INTRA.VDW>
1.02815

>  <SCORE.INTRA.VDW.0>
-1.32335

>  <SCORE.INTRA.norm>
-0.0197226

>  <SCORE.RESTR>
0

>  <SCORE.RESTR.CAVITY>
0

>  <SCORE.RESTR.norm>
0

>  <SCORE.SYSTEM>
0

>  <SCORE.SYSTEM.CONST>
0

>  <SCORE.SYSTEM.DIHEDRAL>
0

>  <SCORE.SYSTEM.SOLV>
0

>  <SCORE.SYSTEM.norm>
0

>  <SCORE.heavy>
22

>  <SCORE.norm>
-0.695256

>  <RMSD>
0.793

$$$$
2fcx_lig
 OpenBabel11021811433D
libRbt.so/2013.1/901 2013/11/27
 22 23  0  0  0  0  0  0  0  0999 V2000
   31.1789   13.1587   11.4800 N   0  0  0  0  0  0  0  0  0  0  0  0
   29.7397   11.5693   15.8932 N   0  0  0  0  0  0  0  0  0  0  0  0
   29.5983    6.7199   18.1492 N   0  0  0  0  0  0  0  0  0  0  0  0
   28.2527    9.2722   11.8693 O   0  0  0  0  0  0  0  0  0  0  0  0
   28.5585   10.5550   12.4229 C   0  0  2  0  0  0  0  0  0  0  0  0
   24.9799    9.3804   14.3412 N   0  0  0  0  0  0  0  0  0  0  0  0
   29.2062   11.4251   10.2825 O   0  0  0  0  0  0  0  0  0  0  0  0
   29.6794   11.2174   11.6185 C   0  0  1  0  0  0  0  0  0  0  0  0
   27.7761    9.9525   14.6491 O   0  0  0  0  0  0  0  0  0  0  0  0
   30.0696   12.5614   12.2378 C   0  0  1  0  0  0  0  0  0  0  0  0
   28.2593    7.6647   14.8047 O   0  0  0  0  0  0  0  0  0  0  0  0
   30.4997   12.3773   13.6971 C   0  0  0  0  0  0  0  0  0  0  0  0
   27.0249    7.4269   18.2833 O   0  0  0  0  0  0  0  0  0  0  0  0
   29.3457   11.7571   14.4898 C   0  0  1  0  0  0  0  0  0  0  0  0
   24.6521    8.0871   16.8817 O   0  0  0  0  0  0  0  0  0  0  0  0
   28.9195   10.4068   13.9060 C   0  0  2  0  0  0  0  0  0  0  0  0
   27.3359    8.6350   14.2773 C   0  0  1  0  0  0  0  0  0  0  0  0
   28.3313    7.6444   16.2446 C   0  0  2  0  0  0  0  0  0  0  0  0
   29.3059    6.5632   16.7166 C   0  0  0  0  0  0  0  0  0  0  0  0
   26.9576    7.3552   16.8558 C   0  0  2  0  0  0  0  0  0  0  0  0
   25.9477    8.3925   16.3622 C   0  0  1  0  0  0  0  0  0  0  0  0
   25.9301    8.3730   14.8314 C   0  0  1  0  0  0  0  0  0  0  0  0
  5  4  1  6  0  0  0
  5  8  1  0  0  0  0
  5 16  1  0  0  0  0
  8  7  1  6  0  0  0
  8 10  1  0  0  0  0
 10  1  1  6  0  0  0
 10 12  1  0  0  0  0
 11 18  1  0  0  0  0
 12 14  1  0  0  0  0
 14  2  1  1  0  0  0
 14 16  1  0  0  0  0
 16  9  1  1  0  0  0
 17  9  1  1  0  0  0
 17 11  1  0  0  0  0
 17 22  1  0  0  0  0
 18 19  1  6  0  0  0
 18 20  1  0  0  0  0
 19  3  1  0  0  0  0
 20 13  1  1  0  0  0
 20 21  1  0  0  0  0
 21 15  1  1  0  0  0
 21 22  1  0  0  0  0
 22  6  1  6  0  0  0
M  END
>  <CHROM.1>
64.50249317,74.03805455,168.15451300,28.22916341,9.54108210,14.56263015,-1.13490681
0.34999306,2.14241045

>  <Name>
2fcx_lig

>  <RI>
0

>  <Rbt.Current_Directory>
/home/itssahil/PROJECTS/Mol_Feturizer/New_Systems/rnas/2fcx

>  <Rbt.Executable>
rbdock ($Id: //depot/dev/client3/rdock/2013.1/src/exe/rbdock.cxx#4 $)

>  <Rbt.Library>
libRbt.so (2013.1, Build901 2013/11/27)

>  <Rbt.Parameter_File>
/export/apps/rDock/src/rDock_2013.1_src/data/scripts/dock_solv.prm

>  <Rbt.Receptor>
prm/pocket_docking_2.prm

>  <SCORE>
-15.3348

>  <SCORE.INTER>
-14.9234

>  <SCORE.INTER.CONST>
1

>  <SCORE.INTER.POLAR>
-1.22442

>  <SCORE.INTER.ROT>
3

>  <SCORE.INTER.SOLV>
13.5766

>  <SCORE.INTER.VDW>
-15.9931

>  <SCORE.INTER.norm>
-0.678337

>  <SCORE.INTRA>
-0.411404

>  <SCORE.INTRA.DIHEDRAL>
-3.35225

>  <SCORE.INTRA.DIHEDRAL.0>
4.88619

>  <SCORE.INTRA.POLAR>
0

>  <SCORE.INTRA.POLAR.0>
0

>  <SCORE.INTRA.REPUL>
0

>  <SCORE.INTRA.REPUL.0>
0

>  <SCORE.INTRA.SOLV>
0.288711

>  <SCORE.INTRA.SOLV.lig_0>
-73.8187

>  <SCORE.INTRA.VDW>
1.12037

>  <SCORE.INTRA.VDW.0>
-1.32335

>  <SCORE.INTRA.norm>
-0.0187002

>  <SCORE.RESTR>
0

>  <SCORE.RESTR.CAVITY>
0

>  <SCORE.RESTR.norm>
0

>  <SCORE.SYSTEM>
0

>  <SCORE.SYSTEM.CONST>
0

>  <SCORE.SYSTEM.DIHEDRAL>
0

>  <SCORE.SYSTEM.SOLV>
0

>  <SCORE.SYSTEM.norm>
0

>  <SCORE.heavy>
22

>  <SCORE.norm>
-0.697037

>  <RMSD>
0.798

$$$$
2fcx_lig
 OpenBabel11021811433D
libRbt.so/2013.1/901 2013/11/27
 22 23  0  0  0  0  0  0  0  0999 V2000
   31.1733   13.1301   11.4623 N   0  0  0  0  0  0  0  0  0  0  0  0
   29.7452   11.5658   15.8882 N   0  0  0  0  0  0  0  0  0  0  0  0
   29.6186    6.7499   18.1859 N   0  0  0  0  0  0  0  0  0  0  0  0
   28.2757    9.2255   11.8827 O   0  0  0  0  0  0  0  0  0  0  0  0
   28.5719   10.5149   12.4261 C   0  0  2  0  0  0  0  0  0  0  0  0
   25.0010    9.3520   14.3195 N   0  0  0  0  0  0  0  0  0  0  0  0
   29.2135   11.3725   10.2787 O   0  0  0  0  0  0  0  0  0  0  0  0
   29.6881   11.1790   11.6164 C   0  0  1  0  0  0  0  0  0  0  0  0
   27.7937    9.9245   14.6570 O   0  0  0  0  0  0  0  0  0  0  0  0
   30.0683   12.5308   12.2249 C   0  0  1  0  0  0  0  0  0  0  0  0
   28.2736    7.6376   14.8336 O   0  0  0  0  0  0  0  0  0  0  0  0
   30.4995   12.3617   13.6857 C   0  0  0  0  0  0  0  0  0  0  0  0
   26.9975    7.4239   18.2988 O   0  0  0  0  0  0  0  0  0  0  0  0
   29.3501   11.7393   14.4832 C   0  0  1  0  0  0  0  0  0  0  0  0
   24.6421    8.0759   16.8645 O   0  0  0  0  0  0  0  0  0  0  0  0
   28.9339   10.3813   13.9103 C   0  0  2  0  0  0  0  0  0  0  0  0
   27.3571    8.6048   14.2888 C   0  0  1  0  0  0  0  0  0  0  0  0
   28.3283    7.6269   16.2744 C   0  0  2  0  0  0  0  0  0  0  0  0
   29.2966    6.5483   16.7653 C   0  0  0  0  0  0  0  0  0  0  0  0
   26.9472    7.3426   16.8711 C   0  0  2  0  0  0  0  0  0  0  0  0
   25.9439    8.3772   16.3585 C   0  0  1  0  0  0  0  0  0  0  0  0
   25.9447    8.3473   14.8278 C   0  0  1  0  0  0  0  0  0  0  0  0
  5  4  1  6  0  0  0
  5  8  1  0  0  0  0
  5 16  1  0  0  0  0
  8  7  1  6  0  0  0
  8 10  1  0  0  0  0
 10  1  1  6  0  0  0
 10 12  1  0  0  0  0
 11 18  1  0  0  0  0
 12 14  1  0  0  0  0
 14  2  1  1  0  0  0
 14 16  1  0  0  0  0
 16  9  1  1  0  0  0
 17  9  1  1  0  0  0
 17 11  1  0  0  0  0
 17 22  1  0  0  0  0
 18 19  1  6  0  0  0
 18 20  1  0  0  0  0
 19  3  1  0  0  0  0
 20 13  1  1  0  0  0
 20 21  1  0  0  0  0
 21 15  1  1  0  0  0
 21 22  1  0  0  0  0
 22  6  1  6  0  0  0
M  END
>  <CHROM.1>
64.06349143,74.93070477,165.64536180,28.23430855,9.51897691,14.56775512,-1.13317097
0.35682308,2.13422098

>  <Name>
2fcx_lig

>  <RI>
1.21945e+07

>  <Rbt.Current_Directory>
/home/itssahil/PROJECTS/Mol_Feturizer/New_Systems/rnas/2fcx

>  <Rbt.Executable>
rbdock ($Id: //depot/dev/client3/rdock/2013.1/src/exe/rbdock.cxx#4 $)

>  <Rbt.Library>
libRbt.so (2013.1, Build901 2013/11/27)

>  <Rbt.Parameter_File>
/export/apps/rDock/src/rDock_2013.1_src/data/scripts/dock_solv.prm

>  <Rbt.Receptor>
prm/pocket_docking_3.prm

>  <SCORE>
-15.3524

>  <SCORE.INTER>
-15.0704

>  <SCORE.INTER.CONST>
1

>  <SCORE.INTER.POLAR>
-1.24363

>  <SCORE.INTER.ROT>
3

>  <SCORE.INTER.SOLV>
13.6627

>  <SCORE.INTER.VDW>
-16.0557

>  <SCORE.INTER.norm>
-0.685017

>  <SCORE.INTRA>
-0.282071

>  <SCORE.INTRA.DIHEDRAL>
-3.03497

>  <SCORE.INTRA.DIHEDRAL.0>
4.88619

>  <SCORE.INTRA.POLAR>
0

>  <SCORE.INTRA.POLAR.0>
0

>  <SCORE.INTRA.REPUL>
0

>  <SCORE.INTRA.REPUL.0>
0

>  <SCORE.INTRA.SOLV>
0.241237

>  <SCORE.INTRA.SOLV.lig_0>
-73.8187

>  <SCORE.INTRA.VDW>
1.1148

>  <SCORE.INTRA.VDW.0>
-1.32335

>  <SCORE.INTRA.norm>
-0.0128214

>  <SCORE.RESTR>
0

>  <SCORE.RESTR.CAVITY>
0

>  <SCORE.RESTR.norm>
0

>  <SCORE.SYSTEM>
0

>  <SCORE.SYSTEM.CONST>
0

>  <SCORE.SYSTEM.DIHEDRAL>
0

>  <SCORE.SYSTEM.SOLV>
0

>  <SCORE.SYSTEM.norm>
0

>  <SCORE.heavy>
22

>  <SCORE.norm>
-0.697838

>  <RMSD>
0.800

$$$$
2fcx_lig
 OpenBabel11021811433D
libRbt.so/2013.1/901 2013/11/27
 22 23  0  0  0  0  0  0  0  0999 V2000
   31.2412   13.1773   11.5403 N   0  0  0  0  0  0  0  0  0  0  0  0
   29.7311   11.5258   15.9069 N   0  0  0  0  0  0  0  0  0  0  0  0
   29.4590    6.6553   18.0551 N   0  0  0  0  0  0  0  0  0  0  0  0
   28.1888    9.3795   11.8210 O   0  0  0  0  0  0  0  0  0  0  0  0
   28.5335   10.6374   12.4078 C   0  0  2  0  0  0  0  0  0  0  0  0
   24.9126    9.5040   14.3028 N   0  0  0  0  0  0  0  0  0  0  0  0
   29.2187   11.5391   10.2923 O   0  0  0  0  0  0  0  0  0  0  0  0
   29.6789   11.2829   11.6244 C   0  0  1  0  0  0  0  0  0  0  0  0
   27.7218   10.0052   14.6153 O   0  0  0  0  0  0  0  0  0  0  0  0
   30.1097   12.5976   12.2788 C   0  0  1  0  0  0  0  0  0  0  0  0
   28.1521    7.7044   14.7274 O   0  0  0  0  0  0  0  0  0  0  0  0
   30.5269   12.3633   13.7345 C   0  0  0  0  0  0  0  0  0  0  0  0
   26.9185    7.4308   18.2037 O   0  0  0  0  0  0  0  0  0  0  0  0
   29.3499   11.7613   14.5071 C   0  0  1  0  0  0  0  0  0  0  0  0
   24.5593    8.1716   16.8196 O   0  0  0  0  0  0  0  0  0  0  0  0
   28.8827   10.4405   13.8881 C   0  0  2  0  0  0  0  0  0  0  0  0
   27.2505    8.7054   14.2201 C   0  0  1  0  0  0  0  0  0  0  0  0
   28.2261    7.6556   16.1665 C   0  0  2  0  0  0  0  0  0  0  0  0
   29.1762    6.5436   16.6163 C   0  0  0  0  0  0  0  0  0  0  0  0
   26.8471    7.3871   16.7752 C   0  0  2  0  0  0  0  0  0  0  0  0
   25.8607    8.4566   16.3031 C   0  0  1  0  0  0  0  0  0  0  0  0
   25.8400    8.4658   14.7723 C   0  0  1  0  0  0  0  0  0  0  0  0
  5  4  1  6  0  0  0
  5  8  1  0  0  0  0
  5 16  1  0  0  0  0
  8  7  1  6  0  0  0
  8 10  1  0  0  0  0
 10  1  1  6  0  0  0
 10 12  1  0  0  0  0
 11 18  1  0  0  0  0
 12 14  1  0  0  0  0
 14  2  1  1  0  0  0
 14 16  1  0  0  0  0
 16  9  1  1  0  0  0
 17  9  1  1  0  0  0
 17 11  1  0  0  0  0
 17 22  1  0  0  0  0
 18 19  1  6  0  0  0
 18 20  1  0  0  0  0
 19  3  1  0  0  0  0
 20 13  1  1  0  0  0
 20 21  1  0  0  0  0
 21 15  1  1  0  0  0
 21 22  1  0  0  0  0
 22  6  1  1  0  0  0
M  END
>  <CHROM.1>
65.21377258,73.41322896,168.98175071,28.17554550,9.58249107,14.52940025,-1.11660557
0.32847612,2.15665627

>  <Name>
2fcx_lig

>  <RI>
0

>  <Rbt.Current_Directory>
/home/itssahil/PROJECTS/Mol_Feturizer/New_Systems/rnas/2fcx

>  <Rbt.Executable>
rbdock ($Id: //depot/dev/client3/rdock/2013.1/src/exe/rbdock.cxx#4 $)

>  <Rbt.Library>
libRbt.so (2013.1, Build901 2013/11/27)

>  <Rbt.Parameter_File>
/export/apps/rDock/src/rDock_2013.1_src/data/scripts/dock_solv.prm

>  <Rbt.Receptor>
prm/pocket_docking_2.prm

>  <SCORE>
-15.25

>  <SCORE.INTER>
-14.7566

>  <SCORE.INTER.CONST>
1

>  <SCORE.INTER.POLAR>
-1.18172

>  <SCORE.INTER.ROT>
3

>  <SCORE.INTER.SOLV>
13.5287

>  <SCORE.INTER.VDW>
-16.0083

>  <SCORE.INTER.norm>
-0.670756

>  <SCORE.INTRA>
-0.493333

>  <SCORE.INTRA.DIHEDRAL>
-3.46066

>  <SCORE.INTRA.DIHEDRAL.0>
4.88619

>  <SCORE.INTRA.POLAR>
0

>  <SCORE.INTRA.POLAR.0>
0

>  <SCORE.INTRA.REPUL>
0

>  <SCORE.INTRA.REPUL.0>
0

>  <SCORE.INTRA.SOLV>
0.316858

>  <SCORE.INTRA.SOLV.lig_0>
-73.8187

>  <SCORE.INTRA.VDW>
1.07857

>  <SCORE.INTRA.VDW.0>
-1.32335

>  <SCORE.INTRA.norm>
-0.0224242

>  <SCORE.RESTR>
0

>  <SCORE.RESTR.CAVITY>
0

>  <SCORE.RESTR.norm>
0

>  <SCORE.SYSTEM>
0

>  <SCORE.SYSTEM.CONST>
0

>  <SCORE.SYSTEM.DIHEDRAL>
0

>  <SCORE.SYSTEM.SOLV>
0

>  <SCORE.SYSTEM.norm>
0

>  <SCORE.heavy>
22

>  <SCORE.norm>
-0.69318

>  <RMSD>
0.805

$$$$
2fcx_lig
 OpenBabel11021811433D
libRbt.so/2013.1/901 2013/11/27
 22 23  0  0  0  0  0  0  0  0999 V2000
   31.2130   13.1400   11.4999 N   0  0  0  0  0  0  0  0  0  0  0  0
   29.7316   11.5423   15.8962 N   0  0  0  0  0  0  0  0  0  0  0  0
   29.4943    6.6731   18.1004 N   0  0  0  0  0  0  0  0  0  0  0  0
   28.2106    9.3083   11.8495 O   0  0  0  0  0  0  0  0  0  0  0  0
   28.5399   10.5802   12.4146 C   0  0  2  0  0  0  0  0  0  0  0  0
   24.9331    9.4651   14.3146 N   0  0  0  0  0  0  0  0  0  0  0  0
   29.2099   11.4553   10.2831 O   0  0  0  0  0  0  0  0  0  0  0  0
   29.6756   11.2273   11.6185 C   0  0  1  0  0  0  0  0  0  0  0  0
   27.7401    9.9745   14.6338 O   0  0  0  0  0  0  0  0  0  0  0  0
   30.0903   12.5582   12.2500 C   0  0  1  0  0  0  0  0  0  0  0  0
   28.1745    7.6755   14.7658 O   0  0  0  0  0  0  0  0  0  0  0  0
   30.5129   12.3536   13.7087 C   0  0  0  0  0  0  0  0  0  0  0  0
   26.9280    7.4270   18.2394 O   0  0  0  0  0  0  0  0  0  0  0  0
   29.3450   11.7494   14.4934 C   0  0  1  0  0  0  0  0  0  0  0  0
   24.5727    8.1521   16.8405 O   0  0  0  0  0  0  0  0  0  0  0  0
   28.8941   10.4126   13.8973 C   0  0  2  0  0  0  0  0  0  0  0  0
   27.2729    8.6706   14.2471 C   0  0  1  0  0  0  0  0  0  0  0  0
   28.2430    7.6383   16.2056 C   0  0  2  0  0  0  0  0  0  0  0  0
   29.1936    6.5318   16.6679 C   0  0  0  0  0  0  0  0  0  0  0  0
   26.8622    7.3718   16.8111 C   0  0  2  0  0  0  0  0  0  0  0  0
   25.8755    8.4355   16.3267 C   0  0  1  0  0  0  0  0  0  0  0  0
   25.8608    8.4326   14.7958 C   0  0  1  0  0  0  0  0  0  0  0  0
  5  4  1  6  0  0  0
  5  8  1  0  0  0  0
  5 16  1  0  0  0  0
  8  7  1  6  0  0  0
  8 10  1  0  0  0  0
 10  1  1  6  0  0  0
 10 12  1  0  0  0  0
 11 18  1  0  0  0  0
 12 14  1  0  0  0  0
 14  2  1  1  0  0  0
 14 16  1  0  0  0  0
 16  9  1  1  0  0  0
 17  9  1  1  0  0  0
 17 11  1  0  0  0  0
 17 22  1  0  0  0  0
 18 19  1  6  0  0  0
 18 20  1  0  0  0  0
 19  3  1  0  0  0  0
 20 13  1  1  0  0  0
 20 21  1  0  0  0  0
 21 15  1  1  0  0  0
 21 22  1  0  0  0  0
 22  6  1  6  0  0  0
M  END
>  <CHROM.1>
64.32971333,74.06326228,167.72783299,28.18428859,9.55418364,14.54258958,-1.12117208
0.33325981,2.14794675

>  <Name>
2fcx_lig

>  <RI>
0

>  <Rbt.Current_Directory>
/home/itssahil/PROJECTS/Mol_Feturizer/New_Systems/rnas/2fcx

>  <Rbt.Executable>
rbdock ($Id: //depot/dev/client3/rdock/2013.1/src/exe/rbdock.cxx#4 $)

>  <Rbt.Library>
libRbt.so (2013.1, Build901 2013/11/27)

>  <Rbt.Parameter_File>
/export/apps/rDock/src/rDock_2013.1_src/data/scripts/dock_solv.prm

>  <Rbt.Receptor>
prm/pocket_docking_2.prm

>  <SCORE>
-15.2997

>  <SCORE.INTER>
-14.9011

>  <SCORE.INTER.CONST>
1

>  <SCORE.INTER.POLAR>
-1.21841

>  <SCORE.INTER.ROT>
3

>  <SCORE.INTER.SOLV>
13.6969

>  <SCORE.INTER.VDW>
-16.0383

>  <SCORE.INTER.norm>
-0.677322

>  <SCORE.INTRA>
-0.39858

>  <SCORE.INTRA.DIHEDRAL>
-3.32162

>  <SCORE.INTRA.DIHEDRAL.0>
4.88619

>  <SCORE.INTRA.POLAR>
0

>  <SCORE.INTRA.POLAR.0>
0

>  <SCORE.INTRA.REPUL>
0

>  <SCORE.INTRA.REPUL.0>
0

>  <SCORE.INTRA.SOLV>
0.272928

>  <SCORE.INTRA.SOLV.lig_0>
-73.8187

>  <SCORE.INTRA.VDW>
1.12576

>  <SCORE.INTRA.VDW.0>
-1.32335

>  <SCORE.INTRA.norm>
-0.0181173

>  <SCORE.RESTR>
0

>  <SCORE.RESTR.CAVITY>
0

>  <SCORE.RESTR.norm>
0

>  <SCORE.SYSTEM>
0

>  <SCORE.SYSTEM.CONST>
0

>  <SCORE.SYSTEM.DIHEDRAL>
0

>  <SCORE.SYSTEM.SOLV>
0

>  <SCORE.SYSTEM.norm>
0

>  <SCORE.heavy>
22

>  <SCORE.norm>
-0.695439

>  <RMSD>
0.808

$$$$
2fcx_lig
 OpenBabel11021811433D
libRbt.so/2013.1/901 2013/11/27
 22 23  0  0  0  0  0  0  0  0999 V2000
   31.1965   13.1564   11.4530 N   0  0  0  0  0  0  0  0  0  0  0  0
   29.6915   11.6021   15.8569 N   0  0  0  0  0  0  0  0  0  0  0  0
   29.5940    6.8289   18.1219 N   0  0  0  0  0  0  0  0  0  0  0  0
   28.2365    9.2941   11.8275 O   0  0  0  0  0  0  0  0  0  0  0  0
   28.5452   10.5776   12.3779 C   0  0  2  0  0  0  0  0  0  0  0  0
   24.9370    9.4094   14.2930 N   0  0  0  0  0  0  0  0  0  0  0  0
   29.2255   11.4310   10.2408 O   0  0  0  0  0  0  0  0  0  0  0  0
   29.6808   11.2272   11.5836 C   0  0  1  0  0  0  0  0  0  0  0  0
   27.7311    9.9932   14.5975 O   0  0  0  0  0  0  0  0  0  0  0  0
   30.0736   12.5716   12.2005 C   0  0  1  0  0  0  0  0  0  0  0  0
   28.2212    7.7087   14.7772 O   0  0  0  0  0  0  0  0  0  0  0  0
   30.4844   12.3923   13.6659 C   0  0  0  0  0  0  0  0  0  0  0  0
   26.9842    7.5032   18.2571 O   0  0  0  0  0  0  0  0  0  0  0  0
   29.3162   11.7851   14.4477 C   0  0  1  0  0  0  0  0  0  0  0  0
   24.6108    8.1415   16.8465 O   0  0  0  0  0  0  0  0  0  0  0  0
   28.8869   10.4349   13.8661 C   0  0  2  0  0  0  0  0  0  0  0  0
   27.2953    8.6706   14.2390 C   0  0  1  0  0  0  0  0  0  0  0  0
   28.2919    7.7035   16.2174 C   0  0  2  0  0  0  0  0  0  0  0  0
   29.2694    6.6302   16.7015 C   0  0  0  0  0  0  0  0  0  0  0  0
   26.9185    7.4164   16.8303 C   0  0  2  0  0  0  0  0  0  0  0  0
   25.9059    8.4455   16.3250 C   0  0  1  0  0  0  0  0  0  0  0  0
   25.8898    8.4100   14.7946 C   0  0  1  0  0  0  0  0  0  0  0  0
  5  4  1  6  0  0  0
  5  8  1  0  0  0  0
  5 16  1  0  0  0  0
  8  7  1  6  0  0  0
  8 10  1  0  0  0  0
 10  1  1  6  0  0  0
 10 12  1  0  0  0  0
 11 18  1  0  0  0  0
 12 14  1  0  0  0  0
 14  2  1  1  0  0  0
 14 16  1  0  0  0  0
 16  9  1  1  0  0  0
 17  9  1  1  0  0  0
 17 11  1  0  0  0  0
 17 22  1  0  0  0  0
 18 19  1  6  0  0  0
 18 20  1  0  0  0  0
 19  3  1  0  0  0  0
 20 13  1  1  0  0  0
 20 21  1  0  0  0  0
 21 15  1  1  0  0  0
 21 22  1  0  0  0  0
 22  6  1  6  0  0  0
M  END
>  <CHROM.1>
65.21607456,73.08980862,166.31341668,28.20355376,9.57939857,14.52742970,-1.12551916
0.35086318,2.13051072

>  <Name>
2fcx_lig

>  <RI>
0

>  <Rbt.Current_Directory>
/home/itssahil/PROJECTS/Mol_Feturizer/New_Systems/rnas/2fcx

>  <Rbt.Executable>
rbdock ($Id: //depot/dev/client3/rdock/2013.1/src/exe/rbdock.cxx#4 $)

>  <Rbt.Library>
libRbt.so (2013.1, Build901 2013/11/27)

>  <Rbt.Parameter_File>
/export/apps/rDock/src/rDock_2013.1_src/data/scripts/dock_solv.prm

>  <Rbt.Receptor>
prm/pocket_docking_2.prm

>  <SCORE>
-15.3095

>  <SCORE.INTER>
-14.8028

>  <SCORE.INTER.CONST>
1

>  <SCORE.INTER.POLAR>
-1.23156

>  <SCORE.INTER.ROT>
3

>  <SCORE.INTER.SOLV>
13.3548

>  <SCORE.INTER.VDW>
-15.8149

>  <SCORE.INTER.norm>
-0.672853

>  <SCORE.INTRA>
-0.506732

>  <SCORE.INTRA.DIHEDRAL>
-3.27684

>  <SCORE.INTRA.DIHEDRAL.0>
4.88619

>  <SCORE.INTRA.POLAR>
0

>  <SCORE.INTRA.POLAR.0>
0

>  <SCORE.INTRA.REPUL>
0

>  <SCORE.INTRA.REPUL.0>
0

>  <SCORE.INTRA.SOLV>
0.244323

>  <SCORE.INTRA.SOLV.lig_0>
-73.8187

>  <SCORE.INTRA.VDW>
1.00953

>  <SCORE.INTRA.VDW.0>
-1.32335

>  <SCORE.INTRA.norm>
-0.0230333

>  <SCORE.RESTR>
0

>  <SCORE.RESTR.CAVITY>
0

>  <SCORE.RESTR.norm>
0

>  <SCORE.SYSTEM>
0

>  <SCORE.SYSTEM.CONST>
0

>  <SCORE.SYSTEM.DIHEDRAL>
0

>  <SCORE.SYSTEM.SOLV>
0

>  <SCORE.SYSTEM.norm>
0

>  <SCORE.heavy>
22

>  <SCORE.norm>
-0.695886

>  <RMSD>
0.829

$$$$
2fcx_lig
 OpenBabel11021811433D
libRbt.so/2013.1/901 2013/11/27
 22 23  0  0  0  0  0  0  0  0999 V2000
   31.1750   13.1360   11.4064 N   0  0  0  0  0  0  0  0  0  0  0  0
   29.6773   11.6342   15.8309 N   0  0  0  0  0  0  0  0  0  0  0  0
   29.6251    6.7567   18.0826 N   0  0  0  0  0  0  0  0  0  0  0  0
   28.2792    9.2312   11.8370 O   0  0  0  0  0  0  0  0  0  0  0  0
   28.5637   10.5292   12.3659 C   0  0  2  0  0  0  0  0  0  0  0  0
   24.9547    9.3794   14.3125 N   0  0  0  0  0  0  0  0  0  0  0  0
   29.2388   11.3563   10.2169 O   0  0  0  0  0  0  0  0  0  0  0  0
   29.6916   11.1839   11.5649 C   0  0  1  0  0  0  0  0  0  0  0  0
   27.7499    9.9703   14.5922 O   0  0  0  0  0  0  0  0  0  0  0  0
   30.0589   12.5455   12.1595 C   0  0  1  0  0  0  0  0  0  0  0  0
   28.2495    7.6860   14.7484 O   0  0  0  0  0  0  0  0  0  0  0  0
   30.4663   12.3990   13.6295 C   0  0  0  0  0  0  0  0  0  0  0  0
   27.0499    7.4485   18.2393 O   0  0  0  0  0  0  0  0  0  0  0  0
   29.3051   11.7859   14.4172 C   0  0  1  0  0  0  0  0  0  0  0  0
   24.6597    8.0900   16.8590 O   0  0  0  0  0  0  0  0  0  0  0  0
   28.9013   10.4185   13.8578 C   0  0  2  0  0  0  0  0  0  0  0  0
   27.3147    8.6491   14.2277 C   0  0  1  0  0  0  0  0  0  0  0  0
   28.3353    7.6695   16.1876 C   0  0  2  0  0  0  0  0  0  0  0  0
   29.3214    6.5958   16.6528 C   0  0  0  0  0  0  0  0  0  0  0  0
   26.9694    7.3730   16.8126 C   0  0  2  0  0  0  0  0  0  0  0  0
   25.9482    8.4026   16.3264 C   0  0  1  0  0  0  0  0  0  0  0  0
   25.9161    8.3793   14.7959 C   0  0  1  0  0  0  0  0  0  0  0  0
  5  4  1  6  0  0  0
  5  8  1  0  0  0  0
  5 16  1  0  0  0  0
  8  7  1  6  0  0  0
  8 10  1  0  0  0  0
 10  1  1  6  0  0  0
 10 12  1  0  0  0  0
 11 18  1  0  0  0  0
 12 14  1  0  0  0  0
 14  2  1  1  0  0  0
 14 16  1  0  0  0  0
 16  9  1  1  0  0  0
 17  9  1  1  0  0  0
 17 11  1  0  0  0  0
 17 22  1  0  0  0  0
 18 19  1  6  0  0  0
 18 20  1  0  0  0  0
 19  3  1  0  0  0  0
 20 13  1  1  0  0  0
 20 21  1  0  0  0  0
 21 15  1  1  0  0  0
 21 22  1  0  0  0  0
 22  6  1  6  0  0  0
M  END
>  <CHROM.1>
63.51403434,72.74427183,168.23166042,28.22531812,9.54629453,14.50964414,-1.13329292
0.34774625,2.13635708

>  <Name>
2fcx_lig

>  <RI>
3.23342e+07

>  <Rbt.Current_Directory>
/home/itssahil/PROJECTS/Mol_Feturizer/New_Systems/rnas/2fcx

>  <Rbt.Executable>
rbdock ($Id: //depot/dev/client3/rdock/2013.1/src/exe/rbdock.cxx#4 $)

>  <Rbt.Library>
libRbt.so (2013.1, Build901 2013/11/27)

>  <Rbt.Parameter_File>
/export/apps/rDock/src/rDock_2013.1_src/data/scripts/dock_solv.prm

>  <Rbt.Receptor>
prm/pocket_docking_5.prm

>  <SCORE>
-15.3328

>  <SCORE.INTER>
-14.9

>  <SCORE.INTER.CONST>
1

>  <SCORE.INTER.POLAR>
-1.26186

>  <SCORE.INTER.ROT>
3

>  <SCORE.INTER.SOLV>
13.8819

>  <SCORE.INTER.VDW>
-15.9544

>  <SCORE.INTER.norm>
-0.677273

>  <SCORE.INTRA>
-0.432763

>  <SCORE.INTRA.DIHEDRAL>
-3.55449

>  <SCORE.INTRA.DIHEDRAL.0>
4.88619

>  <SCORE.INTRA.POLAR>
0

>  <SCORE.INTRA.POLAR.0>
0

>  <SCORE.INTRA.REPUL>
0

>  <SCORE.INTRA.REPUL.0>
0

>  <SCORE.INTRA.SOLV>
0.228983

>  <SCORE.INTRA.SOLV.lig_0>
-73.8187

>  <SCORE.INTRA.VDW>
1.22999

>  <SCORE.INTRA.VDW.0>
-1.32335

>  <SCORE.INTRA.norm>
-0.0196711

>  <SCORE.RESTR>
0

>  <SCORE.RESTR.CAVITY>
0

>  <SCORE.RESTR.norm>
0

>  <SCORE.SYSTEM>
0

>  <SCORE.SYSTEM.CONST>
0

>  <SCORE.SYSTEM.DIHEDRAL>
0

>  <SCORE.SYSTEM.SOLV>
0

>  <SCORE.SYSTEM.norm>
0

>  <SCORE.heavy>
22

>  <SCORE.norm>
-0.696944

>  <RMSD>
0.850

$$$$
2fcx_lig
 OpenBabel11021811433D
libRbt.so/2013.1/901 2013/11/27
 22 23  0  0  0  0  0  0  0  0999 V2000
   31.1851   13.1374   11.4556 N   0  0  0  0  0  0  0  0  0  0  0  0
   29.6389   11.5925   15.8485 N   0  0  0  0  0  0  0  0  0  0  0  0
   29.5072    6.7926   18.0832 N   0  0  0  0  0  0  0  0  0  0  0  0
   28.1976    9.2943   11.8086 O   0  0  0  0  0  0  0  0  0  0  0  0
   28.5107   10.5757   12.3613 C   0  0  2  0  0  0  0  0  0  0  0  0
   24.8787    9.4367   14.2648 N   0  0  0  0  0  0  0  0  0  0  0  0
   29.2116   11.4249   10.2292 O   0  0  0  0  0  0  0  0  0  0  0  0
   29.6561   11.2180   11.5752 C   0  0  1  0  0  0  0  0  0  0  0  0
   27.6771    9.9964   14.5751 O   0  0  0  0  0  0  0  0  0  0  0  0
   30.0531   12.5598   12.1950 C   0  0  1  0  0  0  0  0  0  0  0  0
   28.1489    7.7070   14.7413 O   0  0  0  0  0  0  0  0  0  0  0  0
   30.4524   12.3778   13.6632 C   0  0  0  0  0  0  0  0  0  0  0  0
   26.9074    7.4903   18.2188 O   0  0  0  0  0  0  0  0  0  0  0  0
   29.2748   11.7780   14.4367 C   0  0  1  0  0  0  0  0  0  0  0  0
   24.5403    8.1560   16.8103 O   0  0  0  0  0  0  0  0  0  0  0  0
   28.8409   10.4306   13.8519 C   0  0  2  0  0  0  0  0  0  0  0  0
   27.2311    8.6795   14.2082 C   0  0  1  0  0  0  0  0  0  0  0  0
   28.2183    7.6925   16.1814 C   0  0  2  0  0  0  0  0  0  0  0  0
   29.1869    6.6086   16.6598 C   0  0  0  0  0  0  0  0  0  0  0  0
   26.8422    7.4127   16.7915 C   0  0  2  0  0  0  0  0  0  0  0  0
   25.8382    8.4528   16.2917 C   0  0  1  0  0  0  0  0  0  0  0  0
   25.8232    8.4267   14.7610 C   0  0  1  0  0  0  0  0  0  0  0  0
  5  4  1  6  0  0  0
  5  8  1  0  0  0  0
  5 16  1  0  0  0  0
  8  7  1  6  0  0  0
  8 10  1  0  0  0  0
 10  1  1  6  0  0  0
 10 12  1  0  0  0  0
 11 18  1  0  0  0  0
 12 14  1  0  0  0  0
 14  2  1  1  0  0  0
 14 16  1  0  0  0  0
 16  9  1  1  0  0  0
 17  9  1  1  0  0  0
 17 11  1  0  0  0  0
 17 22  1  0  0  0  0
 18 19  1  6  0  0  0
 18 20  1  0  0  0  0
 19  3  1  0  0  0  0
 20 13  1  1  0  0  0
 20 21  1  0  0  0  0
 21 15  1  1  0  0  0
 21 22  1  0  0  0  0
 22  6  1  6  0  0  0
M  END
>  <CHROM.1>
64.90254539,72.80198999,166.56096686,28.15050341,9.57523480,14.50415993,-1.11720257
0.34418336,2.13271284

>  <Name>
2fcx_lig

>  <RI>
0

>  <Rbt.Current_Directory>
/home/itssahil/PROJECTS/Mol_Feturizer/New_Systems/rnas/2fcx

>  <Rbt.Executable>
rbdock ($Id: //depot/dev/client3/rdock/2013.1/src/exe/rbdock.cxx#4 $)

>  <Rbt.Library>
libRbt.so (2013.1, Build901 2013/11/27)

>  <Rbt.Parameter_File>
/export/apps/rDock/src/rDock_2013.1_src/data/scripts/dock_solv.prm

>  <Rbt.Receptor>
prm/pocket_docking_2.prm

>  <SCORE>
-15.3169

>  <SCORE.INTER>
-14.8054

>  <SCORE.INTER.CONST>
1

>  <SCORE.INTER.POLAR>
-1.24313

>  <SCORE.INTER.ROT>
3

>  <SCORE.INTER.SOLV>
13.5512

>  <SCORE.INTER.VDW>
-15.8436

>  <SCORE.INTER.norm>
-0.672972

>  <SCORE.INTRA>
-0.511475

>  <SCORE.INTRA.DIHEDRAL>
-3.34867

>  <SCORE.INTRA.DIHEDRAL.0>
4.88619

>  <SCORE.INTRA.POLAR>
0

>  <SCORE.INTRA.POLAR.0>
0

>  <SCORE.INTRA.REPUL>
0

>  <SCORE.INTRA.REPUL.0>
0

>  <SCORE.INTRA.SOLV>
0.230907

>  <SCORE.INTRA.SOLV.lig_0>
-73.8187

>  <SCORE.INTRA.VDW>
1.04741

>  <SCORE.INTRA.VDW.0>
-1.32335

>  <SCORE.INTRA.norm>
-0.0232489

>  <SCORE.RESTR>
0

>  <SCORE.RESTR.CAVITY>
0

>  <SCORE.RESTR.norm>
0

>  <SCORE.SYSTEM>
0

>  <SCORE.SYSTEM.CONST>
0

>  <SCORE.SYSTEM.DIHEDRAL>
0

>  <SCORE.SYSTEM.SOLV>
0

>  <SCORE.SYSTEM.norm>
0

>  <SCORE.heavy>
22

>  <SCORE.norm>
-0.696221

>  <RMSD>
0.859

$$$$
2fcx_lig
 OpenBabel11021811433D
libRbt.so/2013.1/901 2013/11/27
 22 23  0  0  0  0  0  0  0  0999 V2000
   31.1451   13.1380   11.4705 N   0  0  0  0  0  0  0  0  0  0  0  0
   29.5910   11.6144   15.8680 N   0  0  0  0  0  0  0  0  0  0  0  0
   29.4953    6.7397   18.0333 N   0  0  0  0  0  0  0  0  0  0  0  0
   28.1715    9.2855   11.8380 O   0  0  0  0  0  0  0  0  0  0  0  0
   28.4778   10.5715   12.3837 C   0  0  2  0  0  0  0  0  0  0  0  0
   24.8344    9.4655   14.3097 N   0  0  0  0  0  0  0  0  0  0  0  0
   29.1822   11.4102   10.2486 O   0  0  0  0  0  0  0  0  0  0  0  0
   29.6232   11.2134   11.5973 C   0  0  1  0  0  0  0  0  0  0  0  0
   27.6395   10.0027   14.5984 O   0  0  0  0  0  0  0  0  0  0  0  0
   30.0131   12.5606   12.2099 C   0  0  1  0  0  0  0  0  0  0  0  0
   28.0983    7.7081   14.7239 O   0  0  0  0  0  0  0  0  0  0  0  0
   30.4084   12.3892   13.6805 C   0  0  0  0  0  0  0  0  0  0  0  0
   26.8927    7.4448   18.2108 O   0  0  0  0  0  0  0  0  0  0  0  0
   29.2306   11.7897   14.4540 C   0  0  1  0  0  0  0  0  0  0  0  0
   24.5150    8.1472   16.8384 O   0  0  0  0  0  0  0  0  0  0  0  0
   28.8039   10.4370   13.8762 C   0  0  2  0  0  0  0  0  0  0  0  0
   27.1811    8.6945   14.2159 C   0  0  1  0  0  0  0  0  0  0  0  0
   28.1830    7.6706   16.1627 C   0  0  2  0  0  0  0  0  0  0  0  0
   29.1496    6.5733   16.6137 C   0  0  0  0  0  0  0  0  0  0  0  0
   26.8117    7.3899   16.7832 C   0  0  2  0  0  0  0  0  0  0  0  0
   25.8091    8.4440   16.3106 C   0  0  1  0  0  0  0  0  0  0  0  0
   25.7776    8.4420   14.7799 C   0  0  1  0  0  0  0  0  0  0  0  0
  5  4  1  6  0  0  0
  5  8  1  0  0  0  0
  5 16  1  0  0  0  0
  8  7  1  6  0  0  0
  8 10  1  0  0  0  0
 10  1  1  6  0  0  0
 10 12  1  0  0  0  0
 11 18  1  0  0  0  0
 12 14  1  0  0  0  0
 14  2  1  1  0  0  0
 14 16  1  0  0  0  0
 16  9  1  1  0  0  0
 17  9  1  1  0  0  0
 17 11  1  0  0  0  0
 17 22  1  0  0  0  0
 18 19  1  6  0  0  0
 18 20  1  0  0  0  0
 19  3  1  0  0  0  0
 20 13  1  1  0  0  0
 20 21  1  0  0  0  0
 21 15  1  1  0  0  0
 21 22  1  0  0  0  0
 22  6  1  1  0  0  0
M  END
>  <CHROM.1>
63.51838011,72.38801115,166.07947392,28.11499806,9.56990667,14.51305453,-1.11866936
0.33171728,2.14492365

>  <Name>
2fcx_lig

>  <RI>
0

>  <Rbt.Current_Directory>
/home/itssahil/PROJECTS/Mol_Feturizer/New_Systems/rnas/2fcx

>  <Rbt.Executable>
rbdock ($Id: //depot/dev/client3/rdock/2013.1/src/exe/rbdock.cxx#4 $)

>  <Rbt.Library>
libRbt.so (2013.1, Build901 2013/11/27)

>  <Rbt.Parameter_File>
/export/apps/rDock/src/rDock_2013.1_src/data/scripts/dock_solv.prm

>  <Rbt.Receptor>
prm/pocket_docking_2.prm

>  <SCORE>
-15.2847

>  <SCORE.INTER>
-14.8407

>  <SCORE.INTER.CONST>
1

>  <SCORE.INTER.POLAR>
-1.25547

>  <SCORE.INTER.ROT>
3

>  <SCORE.INTER.SOLV>
13.7698

>  <SCORE.INTER.VDW>
-15.8988

>  <SCORE.INTER.norm>
-0.674578

>  <SCORE.INTRA>
-0.44402

>  <SCORE.INTRA.DIHEDRAL>
-3.40971

>  <SCORE.INTRA.DIHEDRAL.0>
4.88619

>  <SCORE.INTRA.POLAR>
0

>  <SCORE.INTRA.POLAR.0>
0

>  <SCORE.INTRA.REPUL>
0

>  <SCORE.INTRA.REPUL.0>
0

>  <SCORE.INTRA.SOLV>
0.167939

>  <SCORE.INTRA.SOLV.lig_0>
-73.8187

>  <SCORE.INTRA.VDW>
1.17687

>  <SCORE.INTRA.VDW.0>
-1.32335

>  <SCORE.INTRA.norm>
-0.0201827

>  <SCORE.RESTR>
0

>  <SCORE.RESTR.CAVITY>
0

>  <SCORE.RESTR.norm>
0

>  <SCORE.SYSTEM>
0

>  <SCORE.SYSTEM.CONST>
0

>  <SCORE.SYSTEM.DIHEDRAL>
0

>  <SCORE.SYSTEM.SOLV>
0

>  <SCORE.SYSTEM.norm>
0

>  <SCORE.heavy>
22

>  <SCORE.norm>
-0.69476

>  <RMSD>
0.871

$$$$
2fcx_lig
 OpenBabel11021811433D
libRbt.so/2013.1/901 2013/11/27
 22 23  0  0  0  0  0  0  0  0999 V2000
   31.1611   13.0765   11.3976 N   0  0  0  0  0  0  0  0  0  0  0  0
   29.6211   11.6448   15.8308 N   0  0  0  0  0  0  0  0  0  0  0  0
   29.5600    6.7794   18.0656 N   0  0  0  0  0  0  0  0  0  0  0  0
   28.2306    9.2012   11.8590 O   0  0  0  0  0  0  0  0  0  0  0  0
   28.5221   10.5036   12.3729 C   0  0  2  0  0  0  0  0  0  0  0  0
   24.8835    9.4472   14.3053 N   0  0  0  0  0  0  0  0  0  0  0  0
   29.2185   11.2971   10.2180 O   0  0  0  0  0  0  0  0  0  0  0  0
   29.6608   11.1387   11.5713 C   0  0  1  0  0  0  0  0  0  0  0  0
   27.6886    9.9804   14.6006 O   0  0  0  0  0  0  0  0  0  0  0  0
   30.0351   12.5049   12.1506 C   0  0  1  0  0  0  0  0  0  0  0  0
   28.1409    7.6861   14.7535 O   0  0  0  0  0  0  0  0  0  0  0  0
   30.4312   12.3744   13.6252 C   0  0  0  0  0  0  0  0  0  0  0  0
   26.9191    7.4644   18.2376 O   0  0  0  0  0  0  0  0  0  0  0  0
   29.2597   11.7810   14.4127 C   0  0  1  0  0  0  0  0  0  0  0  0
   24.5494    8.1578   16.8470 O   0  0  0  0  0  0  0  0  0  0  0  0
   28.8486   10.4097   13.8684 C   0  0  2  0  0  0  0  0  0  0  0  0
   27.2286    8.6692   14.2306 C   0  0  1  0  0  0  0  0  0  0  0  0
   28.2191    7.6643   16.1930 C   0  0  2  0  0  0  0  0  0  0  0  0
   29.1808    6.5696   16.6604 C   0  0  0  0  0  0  0  0  0  0  0  0
   26.8443    7.3940   16.8104 C   0  0  2  0  0  0  0  0  0  0  0  0
   25.8466    8.4454   16.3217 C   0  0  1  0  0  0  0  0  0  0  0  0
   25.8219    8.4265   14.7910 C   0  0  1  0  0  0  0  0  0  0  0  0
  5  4  1  6  0  0  0
  5  8  1  0  0  0  0
  5 16  1  0  0  0  0
  8  7  1  6  0  0  0
  8 10  1  0  0  0  0
 10  1  1  6  0  0  0
 10 12  1  0  0  0  0
 11 18  1  0  0  0  0
 12 14  1  0  0  0  0
 14  2  1  1  0  0  0
 14 16  1  0  0  0  0
 16  9  1  1  0  0  0
 17  9  1  1  0  0  0
 17 11  1  0  0  0  0
 17 22  1  0  0  0  0
 18 19  1  6  0  0  0
 18 20  1  0  0  0  0
 19  3  1  0  0  0  0
 20 13  1  1  0  0  0
 20 21  1  0  0  0  0
 21 15  1  1  0  0  0
 21 22  1  0  0  0  0
 22  6  1  6  0  0  0
M  END
>  <CHROM.1>
62.29181829,73.03774494,163.97242891,28.15319559,9.54615888,14.50979873,-1.11997715
0.33183158,2.13149074

>  <Name>
2fcx_lig

>  <RI>
1.21945e+07

>  <Rbt.Current_Directory>
/home/itssahil/PROJECTS/Mol_Feturizer/New_Systems/rnas/2fcx

>  <Rbt.Executable>
rbdock ($Id: //depot/dev/client3/rdock/2013.1/src/exe/rbdock.cxx#4 $)

>  <Rbt.Library>
libRbt.so (2013.1, Build901 2013/11/27)

>  <Rbt.Parameter_File>
/export/apps/rDock/src/rDock_2013.1_src/data/scripts/dock_solv.prm

>  <Rbt.Receptor>
prm/pocket_docking_3.prm

>  <SCORE>
-15.3636

>  <SCORE.INTER>
-15.093

>  <SCORE.INTER.CONST>
1

>  <SCORE.INTER.POLAR>
-1.30262

>  <SCORE.INTER.ROT>
3

>  <SCORE.INTER.SOLV>
14.0378

>  <SCORE.INTER.VDW>
-15.9992

>  <SCORE.INTER.norm>
-0.686045

>  <SCORE.INTRA>
-0.270589

>  <SCORE.INTRA.DIHEDRAL>
-3.16328

>  <SCORE.INTRA.DIHEDRAL.0>
4.88619

>  <SCORE.INTRA.POLAR>
0

>  <SCORE.INTRA.POLAR.0>
0

>  <SCORE.INTRA.REPUL>
0

>  <SCORE.INTRA.REPUL.0>
0

>  <SCORE.INTRA.SOLV>
0.107114

>  <SCORE.INTRA.SOLV.lig_0>
-73.8187

>  <SCORE.INTRA.VDW>
1.2575

>  <SCORE.INTRA.VDW.0>
-1.32335

>  <SCORE.INTRA.norm>
-0.0122995

>  <SCORE.RESTR>
0

>  <SCORE.RESTR.CAVITY>
0

>  <SCORE.RESTR.norm>
0

>  <SCORE.SYSTEM>
0

>  <SCORE.SYSTEM.CONST>
0

>  <SCORE.SYSTEM.DIHEDRAL>
0

>  <SCORE.SYSTEM.SOLV>
0

>  <SCORE.SYSTEM.norm>
0

>  <SCORE.heavy>
22

>  <SCORE.norm>
-0.698345

>  <RMSD>
0.875

$$$$
2fcx_lig
 OpenBabel11021811433D
libRbt.so/2013.1/901 2013/11/27
 22 23  0  0  0  0  0  0  0  0999 V2000
   31.1132   13.2258   11.4495 N   0  0  0  0  0  0  0  0  0  0  0  0
   29.6339   11.6598   15.8579 N   0  0  0  0  0  0  0  0  0  0  0  0
   29.2807    5.4548   16.4488 N   0  0  0  0  0  0  0  0  0  0  0  0
   28.3246    9.2400   11.8442 O   0  0  0  0  0  0  0  0  0  0  0  0
   28.5701   10.5426   12.3812 C   0  0  2  0  0  0  0  0  0  0  0  0
   25.0231    9.1209   14.3507 N   0  0  0  0  0  0  0  0  0  0  0  0
   29.2335   11.3993   10.2402 O   0  0  0  0  0  0  0  0  0  0  0  0
   29.6837   11.2325   11.5899 C   0  0  1  0  0  0  0  0  0  0  0  0
   27.7602    9.9496   14.6001 O   0  0  0  0  0  0  0  0  0  0  0  0
   30.0098   12.6006   12.1934 C   0  0  1  0  0  0  0  0  0  0  0  0
   28.4403    7.7255   14.8878 O   0  0  0  0  0  0  0  0  0  0  0  0
   30.4132   12.4578   13.6648 C   0  0  0  0  0  0  0  0  0  0  0  0
   27.2427    7.5920   18.3848 O   0  0  0  0  0  0  0  0  0  0  0  0
   29.2653   11.8085   14.4429 C   0  0  1  0  0  0  0  0  0  0  0  0
   24.8170    7.9594   16.9666 O   0  0  0  0  0  0  0  0  0  0  0  0
   28.9026   10.4335   13.8743 C   0  0  2  0  0  0  0  0  0  0  0  0
   27.4345    8.5791   14.3114 C   0  0  1  0  0  0  0  0  0  0  0  0
   28.5185    7.7982   16.3257 C   0  0  2  0  0  0  0  0  0  0  0  0
   29.5848    6.8355   16.8531 C   0  0  0  0  0  0  0  0  0  0  0  0
   27.1771    7.4289   16.9647 C   0  0  2  0  0  0  0  0  0  0  0  0
   26.0795    8.3436   16.4188 C   0  0  1  0  0  0  0  0  0  0  0  0
   26.0586    8.2305   14.8921 C   0  0  1  0  0  0  0  0  0  0  0  0
  5  4  1  6  0  0  0
  5  8  1  0  0  0  0
  5 16  1  0  0  0  0
  8  7  1  6  0  0  0
  8 10  1  0  0  0  0
 10  1  1  6  0  0  0
 10 12  1  0  0  0  0
 11 18  1  0  0  0  0
 12 14  1  0  0  0  0
 14  2  1  1  0  0  0
 14 16  1  0  0  0  0
 16  9  1  1  0  0  0
 17  9  1  1  0  0  0
 17 11  1  0  0  0  0
 17 22  1  0  0  0  0
 18 19  1  1  0  0  0
 18 20  1  0  0  0  0
 19  3  1  0  0  0  0
 20 13  1  1  0  0  0
 20 21  1  0  0  0  0
 21 15  1  1  0  0  0
 21 22  1  0  0  0  0
 22  6  1  6  0  0  0
M  END
>  <CHROM.1>
68.62033586,70.87190523,-58.68079149,28.27728352,9.50142985,14.50214972,-1.15309048
0.32056779,2.19474377

>  <Name>
2fcx_lig

>  <RI>
0

>  <Rbt.Current_Directory>
/home/itssahil/PROJECTS/Mol_Feturizer/New_Systems/rnas/2fcx

>  <Rbt.Executable>
rbdock ($Id: //depot/dev/client3/rdock/2013.1/src/exe/rbdock.cxx#4 $)

>  <Rbt.Library>
libRbt.so (2013.1, Build901 2013/11/27)

>  <Rbt.Parameter_File>
/export/apps/rDock/src/rDock_2013.1_src/data/scripts/dock_solv.prm

>  <Rbt.Receptor>
prm/pocket_docking_2.prm

>  <SCORE>
-13.0516

>  <SCORE.INTER>
-12.0128

>  <SCORE.INTER.CONST>
1

>  <SCORE.INTER.POLAR>
-1.22582

>  <SCORE.INTER.ROT>
3

>  <SCORE.INTER.SOLV>
21.1991

>  <SCORE.INTER.VDW>
-16.5888

>  <SCORE.INTER.norm>
-0.546036

>  <SCORE.INTRA>
-1.03951

>  <SCORE.INTRA.DIHEDRAL>
-3.94392

>  <SCORE.INTRA.DIHEDRAL.0>
4.88619

>  <SCORE.INTRA.POLAR>
0

>  <SCORE.INTRA.POLAR.0>
0

>  <SCORE.INTRA.REPUL>
0

>  <SCORE.INTRA.REPUL.0>
0

>  <SCORE.INTRA.SOLV>
0.709226

>  <SCORE.INTRA.SOLV.lig_0>
-73.8187

>  <SCORE.INTRA.VDW>
0.577836

>  <SCORE.INTRA.VDW.0>
-1.32335

>  <SCORE.INTRA.norm>
-0.0472505

>  <SCORE.RESTR>
0.000654337

>  <SCORE.RESTR.CAVITY>
0.000654337

>  <SCORE.RESTR.norm>
2.97426e-05

>  <SCORE.SYSTEM>
0

>  <SCORE.SYSTEM.CONST>
0

>  <SCORE.SYSTEM.DIHEDRAL>
0

>  <SCORE.SYSTEM.SOLV>
0

>  <SCORE.SYSTEM.norm>
0

>  <SCORE.heavy>
22

>  <SCORE.norm>
-0.593257

>  <RMSD>
0.892

$$$$
2fcx_lig
 OpenBabel11021811433D
libRbt.so/2013.1/901 2013/11/27
 22 23  0  0  0  0  0  0  0  0999 V2000
   31.1249   13.2129   11.4390 N   0  0  0  0  0  0  0  0  0  0  0  0
   29.6400   11.6304   15.8396 N   0  0  0  0  0  0  0  0  0  0  0  0
   29.3749    5.5087   16.4695 N   0  0  0  0  0  0  0  0  0  0  0  0
   28.3168    9.2388   11.8135 O   0  0  0  0  0  0  0  0  0  0  0  0
   28.5690   10.5373   12.3574 C   0  0  2  0  0  0  0  0  0  0  0  0
   25.0329    9.0603   14.3464 N   0  0  0  0  0  0  0  0  0  0  0  0
   29.2357   11.4024   10.2208 O   0  0  0  0  0  0  0  0  0  0  0  0
   29.6857   11.2260   11.5693 C   0  0  1  0  0  0  0  0  0  0  0  0
   27.7573    9.9363   14.5735 O   0  0  0  0  0  0  0  0  0  0  0  0
   30.0188   12.5891   12.1800 C   0  0  1  0  0  0  0  0  0  0  0  0
   28.4726    7.7291   14.9032 O   0  0  0  0  0  0  0  0  0  0  0  0
   30.4222   12.4364   13.6505 C   0  0  0  0  0  0  0  0  0  0  0  0
   27.2837    7.6456   18.4048 O   0  0  0  0  0  0  0  0  0  0  0  0
   29.2714   11.7886   14.4256 C   0  0  1  0  0  0  0  0  0  0  0  0
   24.8500    7.9473   16.9849 O   0  0  0  0  0  0  0  0  0  0  0  0
   28.9017   10.4184   13.8498 C   0  0  2  0  0  0  0  0  0  0  0  0
   27.4525    8.5554   14.3124 C   0  0  1  0  0  0  0  0  0  0  0  0
   28.5523    7.8312   16.3393 C   0  0  2  0  0  0  0  0  0  0  0  0
   29.6344    6.8958   16.8831 C   0  0  0  0  0  0  0  0  0  0  0  0
   27.2180    7.4537   16.9883 C   0  0  2  0  0  0  0  0  0  0  0  0
   26.1052    8.3404   16.4269 C   0  0  1  0  0  0  0  0  0  0  0  0
   26.0833    8.1970   14.9028 C   0  0  1  0  0  0  0  0  0  0  0  0
  5  4  1  6  0  0  0
  5  8  1  0  0  0  0
  5 16  1  0  0  0  0
  8  7  1  6  0  0  0
  8 10  1  0  0  0  0
 10  1  1  6  0  0  0
 10 12  1  0  0  0  0
 11 18  1  0  0  0  0
 12 14  1  0  0  0  0
 14  2  1  1  0  0  0
 14 16  1  0  0  0  0
 16  9  1  1  0  0  0
 17  9  1  1  0  0  0
 17 11  1  0  0  0  0
 17 22  1  0  0  0  0
 18 19  1  1  0  0  0
 18 20  1  0  0  0  0
 19  3  1  0  0  0  0
 20 13  1  1  0  0  0
 20 21  1  0  0  0  0
 21 15  1  1  0  0  0
 21 22  1  0  0  0  0
 22  6  1  6  0  0  0
M  END
>  <CHROM.1>
70.64587240,70.06801604,-56.83175636,28.29712767,9.50017435,14.49932193,-1.15599868
0.33172625,2.18206239

>  <Name>
2fcx_lig

>  <RI>
0

>  <Rbt.Current_Directory>
/home/itssahil/PROJECTS/Mol_Feturizer/New_Systems/rnas/2fcx

>  <Rbt.Executable>
rbdock ($Id: //depot/dev/client3/rdock/2013.1/src/exe/rbdock.cxx#4 $)

>  <Rbt.Library>
libRbt.so (2013.1, Build901 2013/11/27)

>  <Rbt.Parameter_File>
/export/apps/rDock/src/rDock_2013.1_src/data/scripts/dock_solv.prm

>  <Rbt.Receptor>
prm/pocket_docking_2.prm

>  <SCORE>
-12.9611

>  <SCORE.INTER>
-11.8727

>  <SCORE.INTER.CONST>
1

>  <SCORE.INTER.POLAR>
-1.22632

>  <SCORE.INTER.ROT>
3

>  <SCORE.INTER.SOLV>
20.9407

>  <SCORE.INTER.VDW>
-16.4077

>  <SCORE.INTER.norm>
-0.539669

>  <SCORE.INTRA>
-1.08841

>  <SCORE.INTRA.DIHEDRAL>
-3.80958

>  <SCORE.INTRA.DIHEDRAL.0>
4.88619

>  <SCORE.INTRA.POLAR>
0

>  <SCORE.INTRA.POLAR.0>
0

>  <SCORE.INTRA.REPUL>
0

>  <SCORE.INTRA.REPUL.0>
0

>  <SCORE.INTRA.SOLV>
0.734233

>  <SCORE.INTRA.SOLV.lig_0>
-73.8187

>  <SCORE.INTRA.VDW>
0.44926

>  <SCORE.INTRA.VDW.0>
-1.32335

>  <SCORE.INTRA.norm>
-0.0494733

>  <SCORE.RESTR>
0

>  <SCORE.RESTR.CAVITY>
0

>  <SCORE.RESTR.norm>
0

>  <SCORE.SYSTEM>
0

>  <SCORE.SYSTEM.CONST>
0

>  <SCORE.SYSTEM.DIHEDRAL>
0

>  <SCORE.SYSTEM.SOLV>
0

>  <SCORE.SYSTEM.norm>
0

>  <SCORE.heavy>
22

>  <SCORE.norm>
-0.589143

>  <RMSD>
0.892

$$$$
2fcx_lig
 OpenBabel11021811433D
libRbt.so/2013.1/901 2013/11/27
 22 23  0  0  0  0  0  0  0  0999 V2000
   31.1487   13.1453   11.4291 N   0  0  0  0  0  0  0  0  0  0  0  0
   29.5767   11.6421   15.8272 N   0  0  0  0  0  0  0  0  0  0  0  0
   29.4690    6.7759   18.0414 N   0  0  0  0  0  0  0  0  0  0  0  0
   28.1866    9.2847   11.8035 O   0  0  0  0  0  0  0  0  0  0  0  0
   28.4856   10.5749   12.3433 C   0  0  2  0  0  0  0  0  0  0  0  0
   24.8376    9.4566   14.2604 N   0  0  0  0  0  0  0  0  0  0  0  0
   29.1983   11.4035   10.2071 O   0  0  0  0  0  0  0  0  0  0  0  0
   29.6329   11.2162   11.5591 C   0  0  1  0  0  0  0  0  0  0  0  0
   27.6375   10.0162   14.5569 O   0  0  0  0  0  0  0  0  0  0  0  0
   30.0148   12.5683   12.1659 C   0  0  1  0  0  0  0  0  0  0  0  0
   28.1117    7.7261   14.7065 O   0  0  0  0  0  0  0  0  0  0  0  0
   30.4029   12.4070   13.6395 C   0  0  0  0  0  0  0  0  0  0  0  0
   26.8916    7.4879   18.1902 O   0  0  0  0  0  0  0  0  0  0  0  0
   29.2232   11.8079   14.4103 C   0  0  1  0  0  0  0  0  0  0  0  0
   24.5156    8.1605   16.8002 O   0  0  0  0  0  0  0  0  0  0  0  0
   28.8042   10.4503   13.8382 C   0  0  2  0  0  0  0  0  0  0  0  0
   27.1901    8.7012   14.1849 C   0  0  1  0  0  0  0  0  0  0  0  0
   28.1899    7.7031   16.1461 C   0  0  2  0  0  0  0  0  0  0  0  0
   29.1620    6.6170   16.6120 C   0  0  0  0  0  0  0  0  0  0  0  0
   26.8177    7.4188   16.7629 C   0  0  2  0  0  0  0  0  0  0  0  0
   25.8101    8.4613   16.2755 C   0  0  1  0  0  0  0  0  0  0  0  0
   25.7857    8.4443   14.7448 C   0  0  1  0  0  0  0  0  0  0  0  0
  5  4  1  6  0  0  0
  5  8  1  0  0  0  0
  5 16  1  0  0  0  0
  8  7  1  6  0  0  0
  8 10  1  0  0  0  0
 10  1  1  6  0  0  0
 10 12  1  0  0  0  0
 11 18  1  0  0  0  0
 12 14  1  0  0  0  0
 14  2  1  1  0  0  0
 14 16  1  0  0  0  0
 16  9  1  1  0  0  0
 17  9  1  1  0  0  0
 17 11  1  0  0  0  0
 17 22  1  0  0  0  0
 18 19  1  6  0  0  0
 18 20  1  0  0  0  0
 19  3  1  0  0  0  0
 20 13  1  1  0  0  0
 20 21  1  0  0  0  0
 21 15  1  1  0  0  0
 21 22  1  0  0  0  0
 22  6  1  6  0  0  0
M  END
>  <CHROM.1>
63.83968388,72.24130895,167.74642838,28.11776550,9.58522818,14.48118992,-1.11712382
0.34040921,2.13559020

>  <Name>
2fcx_lig

>  <RI>
0

>  <Rbt.Current_Directory>
/home/itssahil/PROJECTS/Mol_Feturizer/New_Systems/rnas/2fcx

>  <Rbt.Executable>
rbdock ($Id: //depot/dev/client3/rdock/2013.1/src/exe/rbdock.cxx#4 $)

>  <Rbt.Library>
libRbt.so (2013.1, Build901 2013/11/27)

>  <Rbt.Parameter_File>
/export/apps/rDock/src/rDock_2013.1_src/data/scripts/dock_solv.prm

>  <Rbt.Receptor>
prm/pocket_docking_2.prm

>  <SCORE>
-15.2962

>  <SCORE.INTER>
-14.8079

>  <SCORE.INTER.CONST>
1

>  <SCORE.INTER.POLAR>
-1.25774

>  <SCORE.INTER.ROT>
3

>  <SCORE.INTER.SOLV>
13.6778

>  <SCORE.INTER.VDW>
-15.8388

>  <SCORE.INTER.norm>
-0.673087

>  <SCORE.INTRA>
-0.488252

>  <SCORE.INTRA.DIHEDRAL>
-3.56084

>  <SCORE.INTRA.DIHEDRAL.0>
4.88619

>  <SCORE.INTRA.POLAR>
0

>  <SCORE.INTRA.POLAR.0>
0

>  <SCORE.INTRA.REPUL>
0

>  <SCORE.INTRA.REPUL.0>
0

>  <SCORE.INTRA.SOLV>
0.211046

>  <SCORE.INTRA.SOLV.lig_0>
-73.8187

>  <SCORE.INTRA.VDW>
1.18665

>  <SCORE.INTRA.VDW.0>
-1.32335

>  <SCORE.INTRA.norm>
-0.0221933

>  <SCORE.RESTR>
0

>  <SCORE.RESTR.CAVITY>
0

>  <SCORE.RESTR.norm>
0

>  <SCORE.SYSTEM>
0

>  <SCORE.SYSTEM.CONST>
0

>  <SCORE.SYSTEM.DIHEDRAL>
0

>  <SCORE.SYSTEM.SOLV>
0

>  <SCORE.SYSTEM.norm>
0

>  <SCORE.heavy>
22

>  <SCORE.norm>
-0.69528

>  <RMSD>
0.896

$$$$
2fcx_lig
 OpenBabel11021811433D
libRbt.so/2013.1/901 2013/11/27
 22 23  0  0  0  0  0  0  0  0999 V2000
   31.1297   13.0721   11.3740 N   0  0  0  0  0  0  0  0  0  0  0  0
   29.5730   11.6722   15.8115 N   0  0  0  0  0  0  0  0  0  0  0  0
   29.5125    6.8014   18.1128 N   0  0  0  0  0  0  0  0  0  0  0  0
   28.2368    9.1712   11.8569 O   0  0  0  0  0  0  0  0  0  0  0  0
   28.5109   10.4821   12.3586 C   0  0  2  0  0  0  0  0  0  0  0  0
   24.8701    9.4041   14.2821 N   0  0  0  0  0  0  0  0  0  0  0  0
   29.2144   11.2596   10.2002 O   0  0  0  0  0  0  0  0  0  0  0  0
   29.6486   11.1205   11.5582 C   0  0  1  0  0  0  0  0  0  0  0  0
   27.6671    9.9742   14.5859 O   0  0  0  0  0  0  0  0  0  0  0  0
   30.0043   12.4968   12.1252 C   0  0  1  0  0  0  0  0  0  0  0  0
   28.1459    7.6874   14.7670 O   0  0  0  0  0  0  0  0  0  0  0  0
   30.3912   12.3864   13.6038 C   0  0  0  0  0  0  0  0  0  0  0  0
   26.9083    7.4903   18.2471 O   0  0  0  0  0  0  0  0  0  0  0  0
   29.2205   11.7892   14.3895 C   0  0  1  0  0  0  0  0  0  0  0  0
   24.5379    8.1395   16.8365 O   0  0  0  0  0  0  0  0  0  0  0  0
   28.8277   10.4079   13.8573 C   0  0  2  0  0  0  0  0  0  0  0  0
   27.2246    8.6536   14.2283 C   0  0  1  0  0  0  0  0  0  0  0  0
   28.2167    7.6828   16.2071 C   0  0  2  0  0  0  0  0  0  0  0  0
   29.1889    6.6050   16.6919 C   0  0  0  0  0  0  0  0  0  0  0  0
   26.8419    7.4029   16.8204 C   0  0  2  0  0  0  0  0  0  0  0  0
   25.8344    8.4367   16.3147 C   0  0  1  0  0  0  0  0  0  0  0  0
   25.8180    8.4003   14.7842 C   0  0  1  0  0  0  0  0  0  0  0  0
  5  4  1  6  0  0  0
  5  8  1  0  0  0  0
  5 16  1  0  0  0  0
  8  7  1  6  0  0  0
  8 10  1  0  0  0  0
 10  1  1  6  0  0  0
 10 12  1  0  0  0  0
 11 18  1  0  0  0  0
 12 14  1  0  0  0  0
 14  2  1  1  0  0  0
 14 16  1  0  0  0  0
 16  9  1  1  0  0  0
 17  9  1  1  0  0  0
 17 11  1  0  0  0  0
 17 22  1  0  0  0  0
 18 19  1  6  0  0  0
 18 20  1  0  0  0  0
 19  3  1  0  0  0  0
 20 13  1  1  0  0  0
 20 21  1  0  0  0  0
 21 15  1  1  0  0  0
 21 22  1  0  0  0  0
 22  6  1  6  0  0  0
M  END
>  <CHROM.1>
62.37858111,72.89223104,166.42489068,28.13768378,9.54232863,14.50493308,-1.12064270
0.34528923,2.12051811

>  <Name>
2fcx_lig

>  <RI>
1.21945e+07

>  <Rbt.Current_Directory>
/home/itssahil/PROJECTS/Mol_Feturizer/New_Systems/rnas/2fcx

>  <Rbt.Executable>
rbdock ($Id: //depot/dev/client3/rdock/2013.1/src/exe/rbdock.cxx#4 $)

>  <Rbt.Library>
libRbt.so (2013.1, Build901 2013/11/27)

>  <Rbt.Parameter_File>
/export/apps/rDock/src/rDock_2013.1_src/data/scripts/dock_solv.prm

>  <Rbt.Receptor>
prm/pocket_docking_3.prm

>  <SCORE>
-15.4383

>  <SCORE.INTER>
-15.1148

>  <SCORE.INTER.CONST>
1

>  <SCORE.INTER.POLAR>
-1.32314

>  <SCORE.INTER.ROT>
3

>  <SCORE.INTER.SOLV>
14.0565

>  <SCORE.INTER.VDW>
-15.9516

>  <SCORE.INTER.norm>
-0.687037

>  <SCORE.INTRA>
-0.323502

>  <SCORE.INTRA.DIHEDRAL>
-3.41589

>  <SCORE.INTRA.DIHEDRAL.0>
4.88619

>  <SCORE.INTRA.POLAR>
0

>  <SCORE.INTRA.POLAR.0>
0

>  <SCORE.INTRA.REPUL>
0

>  <SCORE.INTRA.REPUL.0>
0

>  <SCORE.INTRA.SOLV>
0.164157

>  <SCORE.INTRA.SOLV.lig_0>
-73.8187

>  <SCORE.INTRA.VDW>
1.30237

>  <SCORE.INTRA.VDW.0>
-1.32335

>  <SCORE.INTRA.norm>
-0.0147046

>  <SCORE.RESTR>
0

>  <SCORE.RESTR.CAVITY>
0

>  <SCORE.RESTR.norm>
0

>  <SCORE.SYSTEM>
0

>  <SCORE.SYSTEM.CONST>
0

>  <SCORE.SYSTEM.DIHEDRAL>
0

>  <SCORE.SYSTEM.SOLV>
0

>  <SCORE.SYSTEM.norm>
0

>  <SCORE.heavy>
22

>  <SCORE.norm>
-0.701742

>  <RMSD>
0.901

$$$$
2fcx_lig
 OpenBabel11021811433D
libRbt.so/2013.1/901 2013/11/27
 22 23  0  0  0  0  0  0  0  0999 V2000
   31.1330   13.0589   11.4078 N   0  0  0  0  0  0  0  0  0  0  0  0
   29.5559   11.6537   15.8365 N   0  0  0  0  0  0  0  0  0  0  0  0
   29.4914    6.7140   18.0337 N   0  0  0  0  0  0  0  0  0  0  0  0
   28.1867    9.1952   11.8664 O   0  0  0  0  0  0  0  0  0  0  0  0
   28.4786   10.4993   12.3761 C   0  0  2  0  0  0  0  0  0  0  0  0
   24.8178    9.4556   14.3497 N   0  0  0  0  0  0  0  0  0  0  0  0
   29.1934   11.2800   10.2226 O   0  0  0  0  0  0  0  0  0  0  0  0
   29.6252   11.1267   11.5799 C   0  0  1  0  0  0  0  0  0  0  0  0
   27.6272    9.9896   14.6002 O   0  0  0  0  0  0  0  0  0  0  0  0
   29.9996   12.4946   12.1553 C   0  0  1  0  0  0  0  0  0  0  0  0
   28.0841    7.6947   14.7287 O   0  0  0  0  0  0  0  0  0  0  0  0
   30.3846   12.3700   13.6333 C   0  0  0  0  0  0  0  0  0  0  0  0
   26.9230    7.4468   18.2318 O   0  0  0  0  0  0  0  0  0  0  0  0
   29.2054   11.7842   14.4151 C   0  0  1  0  0  0  0  0  0  0  0  0
   24.5289    8.1477   16.8874 O   0  0  0  0  0  0  0  0  0  0  0  0
   28.7939   10.4116   13.8744 C   0  0  2  0  0  0  0  0  0  0  0  0
   27.1619    8.6806   14.2287 C   0  0  1  0  0  0  0  0  0  0  0  0
   28.1872    7.6627   16.1665 C   0  0  2  0  0  0  0  0  0  0  0  0
   29.1579    6.5656   16.6093 C   0  0  0  0  0  0  0  0  0  0  0  0
   26.8235    7.3866   16.8056 C   0  0  2  0  0  0  0  0  0  0  0  0
   25.8166    8.4404   16.3418 C   0  0  1  0  0  0  0  0  0  0  0  0
   25.7654    8.4325   14.8117 C   0  0  1  0  0  0  0  0  0  0  0  0
  5  4  1  6  0  0  0
  5  8  1  0  0  0  0
  5 16  1  0  0  0  0
  8  7  1  6  0  0  0
  8 10  1  0  0  0  0
 10  1  1  6  0  0  0
 10 12  1  0  0  0  0
 11 18  1  0  0  0  0
 12 14  1  0  0  0  0
 14  2  1  1  0  0  0
 14 16  1  0  0  0  0
 16  9  1  1  0  0  0
 17  9  1  1  0  0  0
 17 11  1  0  0  0  0
 17 22  1  0  0  0  0
 18 19  1  6  0  0  0
 18 20  1  0  0  0  0
 19  3  1  0  0  0  0
 20 13  1  1  0  0  0
 20 21  1  0  0  0  0
 21 15  1  1  0  0  0
 21 22  1  0  0  0  0
 22  6  1  1  0  0  0
M  END
>  <CHROM.1>
62.02104472,71.57502936,167.73079375,28.11125254,9.54033488,14.51158502,-1.12084603
0.32046849,2.13803130

>  <Name>
2fcx_lig

>  <RI>
1.21945e+07

>  <Rbt.Current_Directory>
/home/itssahil/PROJECTS/Mol_Feturizer/New_Systems/rnas/2fcx

>  <Rbt.Executable>
rbdock ($Id: //depot/dev/client3/rdock/2013.1/src/exe/rbdock.cxx#4 $)

>  <Rbt.Library>
libRbt.so (2013.1, Build901 2013/11/27)

>  <Rbt.Parameter_File>
/export/apps/rDock/src/rDock_2013.1_src/data/scripts/dock_solv.prm

>  <Rbt.Receptor>
prm/pocket_docking_3.prm

>  <SCORE>
-15.4368

>  <SCORE.INTER>
-15.053

>  <SCORE.INTER.CONST>
1

>  <SCORE.INTER.POLAR>
-1.31975

>  <SCORE.INTER.ROT>
3

>  <SCORE.INTER.SOLV>
14.3124

>  <SCORE.INTER.VDW>
-16.007

>  <SCORE.INTER.norm>
-0.684228

>  <SCORE.INTRA>
-0.383763

>  <SCORE.INTRA.DIHEDRAL>
-3.6852

>  <SCORE.INTRA.DIHEDRAL.0>
4.88619

>  <SCORE.INTRA.POLAR>
0

>  <SCORE.INTRA.POLAR.0>
0

>  <SCORE.INTRA.REPUL>
0

>  <SCORE.INTRA.REPUL.0>
0

>  <SCORE.INTRA.SOLV>
0.15161

>  <SCORE.INTRA.SOLV.lig_0>
-73.8187

>  <SCORE.INTRA.VDW>
1.38303

>  <SCORE.INTRA.VDW.0>
-1.32335

>  <SCORE.INTRA.norm>
-0.0174438

>  <SCORE.RESTR>
0

>  <SCORE.RESTR.CAVITY>
0

>  <SCORE.RESTR.norm>
0

>  <SCORE.SYSTEM>
0

>  <SCORE.SYSTEM.CONST>
0

>  <SCORE.SYSTEM.DIHEDRAL>
0

>  <SCORE.SYSTEM.SOLV>
0

>  <SCORE.SYSTEM.norm>
0

>  <SCORE.heavy>
22

>  <SCORE.norm>
-0.701672

>  <RMSD>
0.901

$$$$
2fcx_lig
 OpenBabel11021811433D
libRbt.so/2013.1/901 2013/11/27
 22 23  0  0  0  0  0  0  0  0999 V2000
   31.1209   13.0590   11.4019 N   0  0  0  0  0  0  0  0  0  0  0  0
   29.5495   11.6388   15.8278 N   0  0  0  0  0  0  0  0  0  0  0  0
   29.5266    6.7938   18.1001 N   0  0  0  0  0  0  0  0  0  0  0  0
   28.2069    9.1703   11.8549 O   0  0  0  0  0  0  0  0  0  0  0  0
   28.4870   10.4765   12.3655 C   0  0  2  0  0  0  0  0  0  0  0  0
   24.8405    9.3732   14.3080 N   0  0  0  0  0  0  0  0  0  0  0  0
   29.1981   11.2641   10.2133 O   0  0  0  0  0  0  0  0  0  0  0  0
   29.6293   11.1140   11.5711 C   0  0  1  0  0  0  0  0  0  0  0  0
   27.6368    9.9588   14.5882 O   0  0  0  0  0  0  0  0  0  0  0  0
   29.9913   12.4848   12.1475 C   0  0  1  0  0  0  0  0  0  0  0  0
   28.1297    7.6746   14.7651 O   0  0  0  0  0  0  0  0  0  0  0  0
   30.3752   12.3629   13.6261 C   0  0  0  0  0  0  0  0  0  0  0  0
   26.9226    7.4705   18.2555 O   0  0  0  0  0  0  0  0  0  0  0  0
   29.2000   11.7668   14.4060 C   0  0  1  0  0  0  0  0  0  0  0  0
   24.5369    8.1066   16.8649 O   0  0  0  0  0  0  0  0  0  0  0  0
   28.8008   10.3910   13.8642 C   0  0  2  0  0  0  0  0  0  0  0  0
   27.1987    8.6357   14.2342 C   0  0  1  0  0  0  0  0  0  0  0  0
   28.2127    7.6703   16.2045 C   0  0  2  0  0  0  0  0  0  0  0  0
   29.1949    6.5979   16.6809 C   0  0  0  0  0  0  0  0  0  0  0  0
   26.8447    7.3829   16.8293 C   0  0  2  0  0  0  0  0  0  0  0  0
   25.8273    8.4111   16.3322 C   0  0  1  0  0  0  0  0  0  0  0  0
   25.7982    8.3746   14.8019 C   0  0  1  0  0  0  0  0  0  0  0  0
  5  4  1  6  0  0  0
  5  8  1  0  0  0  0
  5 16  1  0  0  0  0
  8  7  1  6  0  0  0
  8 10  1  0  0  0  0
 10  1  1  6  0  0  0
 10 12  1  0  0  0  0
 11 18  1  0  0  0  0
 12 14  1  0  0  0  0
 14  2  1  1  0  0  0
 14 16  1  0  0  0  0
 16  9  1  1  0  0  0
 17  9  1  1  0  0  0
 17 11  1  0  0  0  0
 17 22  1  0  0  0  0
 18 19  1  6  0  0  0
 18 20  1  0  0  0  0
 19  3  1  0  0  0  0
 20 13  1  1  0  0  0
 20 21  1  0  0  0  0
 21 15  1  1  0  0  0
 21 22  1  0  0  0  0
 22  6  1  6  0  0  0
M  END
>  <CHROM.1>
63.16578483,72.00574551,166.57982851,28.12436988,9.52619046,14.51527125,-1.12185949
0.34421331,2.12285251

>  <Name>
2fcx_lig

>  <RI>
1.55453e+07

>  <Rbt.Current_Directory>
/home/itssahil/PROJECTS/Mol_Feturizer/New_Systems/rnas/2fcx

>  <Rbt.Executable>
rbdock ($Id: //depot/dev/client3/rdock/2013.1/src/exe/rbdock.cxx#4 $)

>  <Rbt.Library>
libRbt.so (2013.1, Build901 2013/11/27)

>  <Rbt.Parameter_File>
/export/apps/rDock/src/rDock_2013.1_src/data/scripts/dock_solv.prm

>  <Rbt.Receptor>
prm/pocket_docking_4.prm

>  <SCORE>
-15.4303

>  <SCORE.INTER>
-14.9842

>  <SCORE.INTER.CONST>
1

>  <SCORE.INTER.POLAR>
-1.32224

>  <SCORE.INTER.ROT>
3

>  <SCORE.INTER.SOLV>
14.125

>  <SCORE.INTER.VDW>
-15.8903

>  <SCORE.INTER.norm>
-0.681099

>  <SCORE.INTRA>
-0.446138

>  <SCORE.INTRA.DIHEDRAL>
-3.50969

>  <SCORE.INTRA.DIHEDRAL.0>
4.88619

>  <SCORE.INTRA.POLAR>
0

>  <SCORE.INTRA.POLAR.0>
0

>  <SCORE.INTRA.REPUL>
0

>  <SCORE.INTRA.REPUL.0>
0

>  <SCORE.INTRA.SOLV>
0.161576

>  <SCORE.INTRA.SOLV.lig_0>
-73.8187

>  <SCORE.INTRA.VDW>
1.22792

>  <SCORE.INTRA.VDW.0>
-1.32335

>  <SCORE.INTRA.norm>
-0.020279

>  <SCORE.RESTR>
0

>  <SCORE.RESTR.CAVITY>
0

>  <SCORE.RESTR.norm>
0

>  <SCORE.SYSTEM>
0

>  <SCORE.SYSTEM.CONST>
0

>  <SCORE.SYSTEM.DIHEDRAL>
0

>  <SCORE.SYSTEM.SOLV>
0

>  <SCORE.SYSTEM.norm>
0

>  <SCORE.heavy>
22

>  <SCORE.norm>
-0.701378

>  <RMSD>
0.901

$$$$
2fcx_lig
 OpenBabel11021811433D
libRbt.so/2013.1/901 2013/11/27
 22 23  0  0  0  0  0  0  0  0999 V2000
   31.1345   13.0771   11.3779 N   0  0  0  0  0  0  0  0  0  0  0  0
   29.5743   11.6694   15.8117 N   0  0  0  0  0  0  0  0  0  0  0  0
   29.4607    6.7576   18.1125 N   0  0  0  0  0  0  0  0  0  0  0  0
   28.2322    9.1819   11.8505 O   0  0  0  0  0  0  0  0  0  0  0  0
   28.5094   10.4909   12.3556 C   0  0  2  0  0  0  0  0  0  0  0  0
   24.8659    9.4149   14.2796 N   0  0  0  0  0  0  0  0  0  0  0  0
   29.2149   11.2722   10.1993 O   0  0  0  0  0  0  0  0  0  0  0  0
   29.6486   11.1286   11.5569 C   0  0  1  0  0  0  0  0  0  0  0  0
   27.6643    9.9792   14.5816 O   0  0  0  0  0  0  0  0  0  0  0  0
   30.0077   12.5025   12.1275 C   0  0  1  0  0  0  0  0  0  0  0  0
   28.1392    7.6911   14.7562 O   0  0  0  0  0  0  0  0  0  0  0  0
   30.3943   12.3874   13.6059 C   0  0  0  0  0  0  0  0  0  0  0  0
   26.9053    7.4871   18.2372 O   0  0  0  0  0  0  0  0  0  0  0  0
   29.2220   11.7910   14.3900 C   0  0  1  0  0  0  0  0  0  0  0  0
   24.5344    8.1441   16.8310 O   0  0  0  0  0  0  0  0  0  0  0  0
   28.8259   10.4120   13.8541 C   0  0  2  0  0  0  0  0  0  0  0  0
   27.2191    8.6603   14.2211 C   0  0  1  0  0  0  0  0  0  0  0  0
   28.2117    7.6826   16.1962 C   0  0  2  0  0  0  0  0  0  0  0  0
   29.1826    6.6018   16.6770 C   0  0  0  0  0  0  0  0  0  0  0  0
   26.8372    7.4036   16.8103 C   0  0  2  0  0  0  0  0  0  0  0  0
   25.8309    8.4405   16.3085 C   0  0  1  0  0  0  0  0  0  0  0  0
   25.8126    8.4081   14.7779 C   0  0  1  0  0  0  0  0  0  0  0  0
  5  4  1  6  0  0  0
  5  8  1  0  0  0  0
  5 16  1  0  0  0  0
  8  7  1  6  0  0  0
  8 10  1  0  0  0  0
 10  1  1  6  0  0  0
 10 12  1  0  0  0  0
 11 18  1  0  0  0  0
 12 14  1  0  0  0  0
 14  2  1  1  0  0  0
 14 16  1  0  0  0  0
 16  9  1  1  0  0  0
 17  9  1  1  0  0  0
 17 11  1  0  0  0  0
 17 22  1  0  0  0  0
 18 19  1  6  0  0  0
 18 20  1  0  0  0  0
 19  3  1  0  0  0  0
 20 13  1  1  0  0  0
 20 21  1  0  0  0  0
 21 15  1  1  0  0  0
 21 22  1  0  0  0  0
 22  6  1  6  0  0  0
M  END
>  <CHROM.1>
62.40999470,72.80681450,168.98580394,28.13331331,9.54454099,14.50056052,-1.12004653
0.34366094,2.12303467

>  <Name>
2fcx_lig

>  <RI>
0

>  <Rbt.Current_Directory>
/home/itssahil/PROJECTS/Mol_Feturizer/New_Systems/rnas/2fcx

>  <Rbt.Executable>
rbdock ($Id: //depot/dev/client3/rdock/2013.1/src/exe/rbdock.cxx#4 $)

>  <Rbt.Library>
libRbt.so (2013.1, Build901 2013/11/27)

>  <Rbt.Parameter_File>
/export/apps/rDock/src/rDock_2013.1_src/data/scripts/dock_solv.prm

>  <Rbt.Receptor>
prm/pocket_docking_6.prm

>  <SCORE>
-15.4567

>  <SCORE.INTER>
-15.1172

>  <SCORE.INTER.CONST>
1

>  <SCORE.INTER.POLAR>
-1.31818

>  <SCORE.INTER.ROT>
3

>  <SCORE.INTER.SOLV>
14.0971

>  <SCORE.INTER.VDW>
-15.9832

>  <SCORE.INTER.norm>
-0.687145

>  <SCORE.INTRA>
-0.339526

>  <SCORE.INTRA.DIHEDRAL>
-3.63806

>  <SCORE.INTRA.DIHEDRAL.0>
4.88619

>  <SCORE.INTRA.POLAR>
0

>  <SCORE.INTRA.POLAR.0>
0

>  <SCORE.INTRA.REPUL>
0

>  <SCORE.INTRA.REPUL.0>
0

>  <SCORE.INTRA.SOLV>
0.223527

>  <SCORE.INTRA.SOLV.lig_0>
-73.8187

>  <SCORE.INTRA.VDW>
1.36774

>  <SCORE.INTRA.VDW.0>
-1.32335

>  <SCORE.INTRA.norm>
-0.015433

>  <SCORE.RESTR>
0

>  <SCORE.RESTR.CAVITY>
0

>  <SCORE.RESTR.norm>
0

>  <SCORE.SYSTEM>
0

>  <SCORE.SYSTEM.CONST>
0

>  <SCORE.SYSTEM.DIHEDRAL>
0

>  <SCORE.SYSTEM.SOLV>
0

>  <SCORE.SYSTEM.norm>
0

>  <SCORE.heavy>
22

>  <SCORE.norm>
-0.702578

>  <RMSD>
0.904

$$$$
2fcx_lig
 OpenBabel11021811433D
libRbt.so/2013.1/901 2013/11/27
 22 23  0  0  0  0  0  0  0  0999 V2000
   31.1232   13.0650   11.3812 N   0  0  0  0  0  0  0  0  0  0  0  0
   29.5521   11.6392   15.8054 N   0  0  0  0  0  0  0  0  0  0  0  0
   29.5994    6.8387   18.1004 N   0  0  0  0  0  0  0  0  0  0  0  0
   28.2295    9.1609   11.8319 O   0  0  0  0  0  0  0  0  0  0  0  0
   28.5016   10.4689   12.3421 C   0  0  2  0  0  0  0  0  0  0  0  0
   24.8630    9.3124   14.3062 N   0  0  0  0  0  0  0  0  0  0  0  0
   29.2122   11.2590   10.1906 O   0  0  0  0  0  0  0  0  0  0  0  0
   29.6418   11.1121   11.5492 C   0  0  1  0  0  0  0  0  0  0  0  0
   27.6505    9.9480   14.5637 O   0  0  0  0  0  0  0  0  0  0  0  0
   29.9955   12.4852   12.1253 C   0  0  1  0  0  0  0  0  0  0  0  0
   28.1833    7.6744   14.7601 O   0  0  0  0  0  0  0  0  0  0  0  0
   30.3775   12.3663   13.6046 C   0  0  0  0  0  0  0  0  0  0  0  0
   27.0004    7.4847   18.2596 O   0  0  0  0  0  0  0  0  0  0  0  0
   29.2042   11.7644   14.3829 C   0  0  1  0  0  0  0  0  0  0  0  0
   24.5960    8.0664   16.8772 O   0  0  0  0  0  0  0  0  0  0  0  0
   28.8135   10.3861   13.8414 C   0  0  2  0  0  0  0  0  0  0  0  0
   27.2329    8.6143   14.2254 C   0  0  1  0  0  0  0  0  0  0  0  0
   28.2748    7.6859   16.1990 C   0  0  2  0  0  0  0  0  0  0  0  0
   29.2779    6.6351   16.6800 C   0  0  0  0  0  0  0  0  0  0  0  0
   26.9156    7.3815   16.8349 C   0  0  2  0  0  0  0  0  0  0  0  0
   25.8779    8.3874   16.3338 C   0  0  1  0  0  0  0  0  0  0  0  0
   25.8404    8.3352   14.8041 C   0  0  1  0  0  0  0  0  0  0  0  0
  5  4  1  6  0  0  0
  5  8  1  0  0  0  0
  5 16  1  0  0  0  0
  8  7  1  6  0  0  0
  8 10  1  0  0  0  0
 10  1  1  6  0  0  0
 10 12  1  0  0  0  0
 11 18  1  0  0  0  0
 12 14  1  0  0  0  0
 14  2  1  1  0  0  0
 14 16  1  0  0  0  0
 16  9  1  1  0  0  0
 17  9  1  1  0  0  0
 17 11  1  0  0  0  0
 17 22  1  0  0  0  0
 18 19  1  6  0  0  0
 18 20  1  0  0  0  0
 19  3  1  0  0  0  0
 20 13  1  1  0  0  0
 20 21  1  0  0  0  0
 21 15  1  1  0  0  0
 21 22  1  0  0  0  0
 22  6  1  6  0  0  0
M  END
>  <CHROM.1>
64.10917222,71.22242447,167.41607893,28.15810149,9.52130470,14.50423872,-1.12839734
0.35476053,2.11753751

>  <Name>
2fcx_lig

>  <RI>
1.55453e+07

>  <Rbt.Current_Directory>
/home/itssahil/PROJECTS/Mol_Feturizer/New_Systems/rnas/2fcx

>  <Rbt.Executable>
rbdock ($Id: //depot/dev/client3/rdock/2013.1/src/exe/rbdock.cxx#4 $)

>  <Rbt.Library>
libRbt.so (2013.1, Build901 2013/11/27)

>  <Rbt.Parameter_File>
/export/apps/rDock/src/rDock_2013.1_src/data/scripts/dock_solv.prm

>  <Rbt.Receptor>
prm/pocket_docking_4.prm

>  <SCORE>
-15.3653

>  <SCORE.INTER>
-14.797

>  <SCORE.INTER.CONST>
1

>  <SCORE.INTER.POLAR>
-1.3212

>  <SCORE.INTER.ROT>
3

>  <SCORE.INTER.SOLV>
14.0873

>  <SCORE.INTER.VDW>
-15.7565

>  <SCORE.INTER.norm>
-0.672591

>  <SCORE.INTRA>
-0.568288

>  <SCORE.INTRA.DIHEDRAL>
-3.63327

>  <SCORE.INTRA.DIHEDRAL.0>
4.88619

>  <SCORE.INTRA.POLAR>
0

>  <SCORE.INTRA.POLAR.0>
0

>  <SCORE.INTRA.REPUL>
0

>  <SCORE.INTRA.REPUL.0>
0

>  <SCORE.INTRA.SOLV>
0.181652

>  <SCORE.INTRA.SOLV.lig_0>
-73.8187

>  <SCORE.INTRA.VDW>
1.15752

>  <SCORE.INTRA.VDW.0>
-1.32335

>  <SCORE.INTRA.norm>
-0.0258313

>  <SCORE.RESTR>
0

>  <SCORE.RESTR.CAVITY>
0

>  <SCORE.RESTR.norm>
0

>  <SCORE.SYSTEM>
0

>  <SCORE.SYSTEM.CONST>
0

>  <SCORE.SYSTEM.DIHEDRAL>
0

>  <SCORE.SYSTEM.SOLV>
0

>  <SCORE.SYSTEM.norm>
0

>  <SCORE.heavy>
22

>  <SCORE.norm>
-0.698422

>  <RMSD>
0.906

$$$$
2fcx_lig
 OpenBabel11021811433D
libRbt.so/2013.1/901 2013/11/27
 22 23  0  0  0  0  0  0  0  0999 V2000
   31.0924   13.2128   11.4306 N   0  0  0  0  0  0  0  0  0  0  0  0
   29.6175   11.6368   15.8369 N   0  0  0  0  0  0  0  0  0  0  0  0
   29.2726    5.4608   16.4167 N   0  0  0  0  0  0  0  0  0  0  0  0
   28.2843    9.2399   11.8173 O   0  0  0  0  0  0  0  0  0  0  0  0
   28.5381   10.5390   12.3589 C   0  0  2  0  0  0  0  0  0  0  0  0
   24.9947    9.1105   14.3303 N   0  0  0  0  0  0  0  0  0  0  0  0
   29.1999   11.4009   10.2194 O   0  0  0  0  0  0  0  0  0  0  0  0
   29.6530   11.2264   11.5671 C   0  0  1  0  0  0  0  0  0  0  0  0
   27.7313    9.9414   14.5777 O   0  0  0  0  0  0  0  0  0  0  0  0
   29.9879   12.5903   12.1751 C   0  0  1  0  0  0  0  0  0  0  0  0
   28.4122    7.7189   14.8761 O   0  0  0  0  0  0  0  0  0  0  0  0
   30.3947   12.4395   13.6449 C   0  0  0  0  0  0  0  0  0  0  0  0
   27.2123    7.6011   18.3729 O   0  0  0  0  0  0  0  0  0  0  0  0
   29.2456   11.7931   14.4236 C   0  0  1  0  0  0  0  0  0  0  0  0
   24.7874    7.9610   16.9514 O   0  0  0  0  0  0  0  0  0  0  0  0
   28.8742   10.4222   13.8506 C   0  0  2  0  0  0  0  0  0  0  0  0
   27.4064    8.5694   14.2951 C   0  0  1  0  0  0  0  0  0  0  0  0
   28.4894    7.7983   16.3137 C   0  0  2  0  0  0  0  0  0  0  0  0
   29.5556    6.8384   16.8463 C   0  0  0  0  0  0  0  0  0  0  0  0
   27.1477    7.4314   16.9535 C   0  0  2  0  0  0  0  0  0  0  0  0
   26.0501    8.3432   16.4026 C   0  0  1  0  0  0  0  0  0  0  0  0
   26.0303    8.2230   14.8765 C   0  0  1  0  0  0  0  0  0  0  0  0
  5  4  1  6  0  0  0
  5  8  1  0  0  0  0
  5 16  1  0  0  0  0
  8  7  1  6  0  0  0
  8 10  1  0  0  0  0
 10  1  1  6  0  0  0
 10 12  1  0  0  0  0
 11 18  1  0  0  0  0
 12 14  1  0  0  0  0
 14  2  1  1  0  0  0
 14 16  1  0  0  0  0
 16  9  1  1  0  0  0
 17  9  1  1  0  0  0
 17 11  1  0  0  0  0
 17 22  1  0  0  0  0
 18 19  1  1  0  0  0
 18 20  1  0  0  0  0
 19  3  1  0  0  0  0
 20 13  1  1  0  0  0
 20 21  1  0  0  0  0
 21 15  1  1  0  0  0
 21 22  1  0  0  0  0
 22  6  1  6  0  0  0
M  END
>  <CHROM.1>
69.24498982,70.86121049,-57.11087924,28.25033144,9.49620695,14.48369811,-1.15260538
0.32009185,2.19228084

>  <Name>
2fcx_lig

>  <RI>
0

>  <Rbt.Current_Directory>
/home/itssahil/PROJECTS/Mol_Feturizer/New_Systems/rnas/2fcx

>  <Rbt.Executable>
rbdock ($Id: //depot/dev/client3/rdock/2013.1/src/exe/rbdock.cxx#4 $)

>  <Rbt.Library>
libRbt.so (2013.1, Build901 2013/11/27)

>  <Rbt.Parameter_File>
/export/apps/rDock/src/rDock_2013.1_src/data/scripts/dock_solv.prm

>  <Rbt.Receptor>
prm/pocket_docking_2.prm

>  <SCORE>
-13.0207

>  <SCORE.INTER>
-11.9745

>  <SCORE.INTER.CONST>
1

>  <SCORE.INTER.POLAR>
-1.23671

>  <SCORE.INTER.ROT>
3

>  <SCORE.INTER.SOLV>
21.2902

>  <SCORE.INTER.VDW>
-16.5574

>  <SCORE.INTER.norm>
-0.544296

>  <SCORE.INTRA>
-1.04618

>  <SCORE.INTRA.DIHEDRAL>
-3.86899

>  <SCORE.INTRA.DIHEDRAL.0>
4.88619

>  <SCORE.INTRA.POLAR>
0

>  <SCORE.INTRA.POLAR.0>
0

>  <SCORE.INTRA.REPUL>
0

>  <SCORE.INTRA.REPUL.0>
0

>  <SCORE.INTRA.SOLV>
0.709197

>  <SCORE.INTRA.SOLV.lig_0>
-73.8187

>  <SCORE.INTRA.VDW>
0.53371

>  <SCORE.INTRA.VDW.0>
-1.32335

>  <SCORE.INTRA.norm>
-0.0475538

>  <SCORE.RESTR>
0

>  <SCORE.RESTR.CAVITY>
0

>  <SCORE.RESTR.norm>
0

>  <SCORE.SYSTEM>
0

>  <SCORE.SYSTEM.CONST>
0

>  <SCORE.SYSTEM.DIHEDRAL>
0

>  <SCORE.SYSTEM.SOLV>
0

>  <SCORE.SYSTEM.norm>
0

>  <SCORE.heavy>
22

>  <SCORE.norm>
-0.59185

>  <RMSD>
0.908

$$$$
2fcx_lig
 OpenBabel11021811433D
libRbt.so/2013.1/901 2013/11/27
 22 23  0  0  0  0  0  0  0  0999 V2000
   30.9713   12.8632   11.0745 N   0  0  0  0  0  0  0  0  0  0  0  0
   30.0262   11.1186   15.5620 N   0  0  0  0  0  0  0  0  0  0  0  0
   30.2512    6.7473   16.8726 N   0  0  0  0  0  0  0  0  0  0  0  0
   27.7627    9.2371   11.6869 O   0  0  0  0  0  0  0  0  0  0  0  0
   28.2688   10.4476   12.2562 C   0  0  2  0  0  0  0  0  0  0  0  0
   24.9433    9.4324   14.0753 N   0  0  0  0  0  0  0  0  0  0  0  0
   28.6873   11.3968   10.0924 O   0  0  0  0  0  0  0  0  0  0  0  0
   29.3233   11.0591   11.3307 C   0  0  1  0  0  0  0  0  0  0  0  0
   27.7561    9.7706   14.5387 O   0  0  0  0  0  0  0  0  0  0  0  0
   29.9280   12.3185   11.9557 C   0  0  1  0  0  0  0  0  0  0  0  0
   28.0059    7.4682   14.8974 O   0  0  0  0  0  0  0  0  0  0  0  0
   30.5413   11.9998   13.3233 C   0  0  0  0  0  0  0  0  0  0  0  0
   26.5339    7.6244   18.2871 O   0  0  0  0  0  0  0  0  0  0  0  0
   29.4567   11.4339   14.2443 C   0  0  1  0  0  0  0  0  0  0  0  0
   24.3305    8.3828   16.6747 O   0  0  0  0  0  0  0  0  0  0  0  0
   28.8210   10.1691   13.6595 C   0  0  2  0  0  0  0  0  0  0  0  0
   27.2158    8.4730   14.2351 C   0  0  1  0  0  0  0  0  0  0  0  0
   27.9831    7.5573   16.3363 C   0  0  2  0  0  0  0  0  0  0  0  0
   28.8169    6.4334   16.9555 C   0  0  0  0  0  0  0  0  0  0  0  0
   26.5516    7.4445   16.8677 C   0  0  2  0  0  0  0  0  0  0  0  0
   25.6800    8.5264   16.2278 C   0  0  1  0  0  0  0  0  0  0  0  0
   25.7588    8.3854   14.7054 C   0  0  1  0  0  0  0  0  0  0  0  0
  5  4  1  6  0  0  0
  5  8  1  0  0  0  0
  5 16  1  0  0  0  0
  8  7  1  6  0  0  0
  8 10  1  0  0  0  0
 10  1  1  6  0  0  0
 10 12  1  0  0  0  0
 11 18  1  0  0  0  0
 12 14  1  0  0  0  0
 14  2  1  1  0  0  0
 14 16  1  0  0  0  0
 16  9  1  1  0  0  0
 17  9  1  1  0  0  0
 17 11  1  0  0  0  0
 17 22  1  0  0  0  0
 18 19  1  1  0  0  0
 18 20  1  0  0  0  0
 19  3  1  0  0  0  0
 20 13  1  1  0  0  0
 20 21  1  0  0  0  0
 21 15  1  1  0  0  0
 21 22  1  0  0  0  0
 22  6  1  6  0  0  0
M  END
>  <CHROM.1>
69.48250061,85.89133340,78.05044695,28.04466980,9.44524431,14.36314151,-1.13462097
0.20668094,2.16112810

>  <Name>
2fcx_lig

>  <RI>
0

>  <Rbt.Current_Directory>
/home/itssahil/PROJECTS/Mol_Feturizer/New_Systems/rnas/2fcx

>  <Rbt.Executable>
rbdock ($Id: //depot/dev/client3/rdock/2013.1/src/exe/rbdock.cxx#4 $)

>  <Rbt.Library>
libRbt.so (2013.1, Build901 2013/11/27)

>  <Rbt.Parameter_File>
/export/apps/rDock/src/rDock_2013.1_src/data/scripts/dock_solv.prm

>  <Rbt.Receptor>
prm/pocket_docking_2.prm

>  <SCORE>
-13.6754

>  <SCORE.INTER>
-13.6015

>  <SCORE.INTER.CONST>
1

>  <SCORE.INTER.POLAR>
-1.00649

>  <SCORE.INTER.ROT>
3

>  <SCORE.INTER.SOLV>
18.1016

>  <SCORE.INTER.VDW>
-17.3466

>  <SCORE.INTER.norm>
-0.618252

>  <SCORE.INTRA>
-0.0738697

>  <SCORE.INTRA.DIHEDRAL>
-0.529808

>  <SCORE.INTRA.DIHEDRAL.0>
4.88619

>  <SCORE.INTRA.POLAR>
0

>  <SCORE.INTRA.POLAR.0>
0

>  <SCORE.INTRA.REPUL>
0

>  <SCORE.INTRA.REPUL.0>
0

>  <SCORE.INTRA.SOLV>
-0.383369

>  <SCORE.INTRA.SOLV.lig_0>
-73.8187

>  <SCORE.INTRA.VDW>
0.382719

>  <SCORE.INTRA.VDW.0>
-1.32335

>  <SCORE.INTRA.norm>
-0.00335771

>  <SCORE.RESTR>
0

>  <SCORE.RESTR.CAVITY>
0

>  <SCORE.RESTR.norm>
0

>  <SCORE.SYSTEM>
0

>  <SCORE.SYSTEM.CONST>
0

>  <SCORE.SYSTEM.DIHEDRAL>
0

>  <SCORE.SYSTEM.SOLV>
0

>  <SCORE.SYSTEM.norm>
0

>  <SCORE.heavy>
22

>  <SCORE.norm>
-0.62161

>  <RMSD>
0.933

$$$$
2fcx_lig
 OpenBabel11021811433D
libRbt.so/2013.1/901 2013/11/27
 22 23  0  0  0  0  0  0  0  0999 V2000
   31.0413   13.0740   11.2878 N   0  0  0  0  0  0  0  0  0  0  0  0
   29.5688   11.7032   15.7630 N   0  0  0  0  0  0  0  0  0  0  0  0
   29.4522    5.5271   16.7056 N   0  0  0  0  0  0  0  0  0  0  0  0
   28.4159    9.0031   11.8822 O   0  0  0  0  0  0  0  0  0  0  0  0
   28.5996   10.3437   12.3454 C   0  0  2  0  0  0  0  0  0  0  0  0
   25.0873    8.8948   14.3441 N   0  0  0  0  0  0  0  0  0  0  0  0
   29.2559   11.1031   10.1658 O   0  0  0  0  0  0  0  0  0  0  0  0
   29.6942   11.0334   11.5278 C   0  0  1  0  0  0  0  0  0  0  0  0
   27.7851    9.8457   14.5859 O   0  0  0  0  0  0  0  0  0  0  0  0
   29.9549   12.4466   12.0544 C   0  0  1  0  0  0  0  0  0  0  0  0
   28.5473    7.6705   15.0094 O   0  0  0  0  0  0  0  0  0  0  0  0
   30.3439   12.4059   13.5361 C   0  0  0  0  0  0  0  0  0  0  0  0
   27.2972    7.6857   18.4905 O   0  0  0  0  0  0  0  0  0  0  0  0
   29.2135   11.7545   14.3377 C   0  0  1  0  0  0  0  0  0  0  0  0
   24.8832    7.8748   17.0185 O   0  0  0  0  0  0  0  0  0  0  0  0
   28.9161   10.3349   13.8460 C   0  0  2  0  0  0  0  0  0  0  0  0
   27.5185    8.4491   14.3708 C   0  0  1  0  0  0  0  0  0  0  0  0
   28.5984    7.8269   16.4418 C   0  0  2  0  0  0  0  0  0  0  0  0
   29.6927    6.9391   17.0386 C   0  0  0  0  0  0  0  0  0  0  0  0
   27.2620    7.4405   17.0812 C   0  0  2  0  0  0  0  0  0  0  0  0
   26.1385    8.2782   16.4682 C   0  0  1  0  0  0  0  0  0  0  0  0
   26.1478    8.0787   14.9503 C   0  0  1  0  0  0  0  0  0  0  0  0
  5  4  1  6  0  0  0
  5  8  1  0  0  0  0
  5 16  1  0  0  0  0
  8  7  1  6  0  0  0
  8 10  1  0  0  0  0
 10  1  1  6  0  0  0
 10 12  1  0  0  0  0
 11 18  1  0  0  0  0
 12 14  1  0  0  0  0
 14  2  1  1  0  0  0
 14 16  1  0  0  0  0
 16  9  1  1  0  0  0
 17  9  1  1  0  0  0
 17 11  1  0  0  0  0
 17 22  1  0  0  0  0
 18 19  1  1  0  0  0
 18 20  1  0  0  0  0
 19  3  1  0  0  0  0
 20 13  1  1  0  0  0
 20 21  1  0  0  0  0
 21 15  1  1  0  0  0
 21 22  1  0  0  0  0
 22  6  1  6  0  0  0
M  END
>  <CHROM.1>
68.46162886,71.12541235,-58.51405907,28.31679658,9.41428794,14.51742475,-1.16570116
0.36229379,2.14189870

>  <Name>
2fcx_lig

>  <RI>
1.21945e+07

>  <Rbt.Current_Directory>
/home/itssahil/PROJECTS/Mol_Feturizer/New_Systems/rnas/2fcx

>  <Rbt.Executable>
rbdock ($Id: //depot/dev/client3/rdock/2013.1/src/exe/rbdock.cxx#4 $)

>  <Rbt.Library>
libRbt.so (2013.1, Build901 2013/11/27)

>  <Rbt.Parameter_File>
/export/apps/rDock/src/rDock_2013.1_src/data/scripts/dock_solv.prm

>  <Rbt.Receptor>
prm/pocket_docking_3.prm

>  <SCORE>
-13.2755

>  <SCORE.INTER>
-12.2528

>  <SCORE.INTER.CONST>
1

>  <SCORE.INTER.POLAR>
-1.35754

>  <SCORE.INTER.ROT>
3

>  <SCORE.INTER.SOLV>
21.4182

>  <SCORE.INTER.VDW>
-16.3828

>  <SCORE.INTER.norm>
-0.556947

>  <SCORE.INTRA>
-1.02271

>  <SCORE.INTRA.DIHEDRAL>
-3.92924

>  <SCORE.INTRA.DIHEDRAL.0>
4.88619

>  <SCORE.INTRA.POLAR>
0

>  <SCORE.INTRA.POLAR.0>
0

>  <SCORE.INTRA.REPUL>
0

>  <SCORE.INTRA.REPUL.0>
0

>  <SCORE.INTRA.SOLV>
0.7081

>  <SCORE.INTRA.SOLV.lig_0>
-73.8187

>  <SCORE.INTRA.VDW>
0.587863

>  <SCORE.INTRA.VDW.0>
-1.32335

>  <SCORE.INTRA.norm>
-0.0464868

>  <SCORE.RESTR>
0

>  <SCORE.RESTR.CAVITY>
0

>  <SCORE.RESTR.norm>
0

>  <SCORE.SYSTEM>
0

>  <SCORE.SYSTEM.CONST>
0

>  <SCORE.SYSTEM.DIHEDRAL>
0

>  <SCORE.SYSTEM.SOLV>
0

>  <SCORE.SYSTEM.norm>
0

>  <SCORE.heavy>
22

>  <SCORE.norm>
-0.603434

>  <RMSD>
0.956

$$$$
2fcx_lig
 OpenBabel11021811433D
libRbt.so/2013.1/901 2013/11/27
 22 23  0  0  0  0  0  0  0  0999 V2000
   31.0009   13.1226   11.2945 N   0  0  0  0  0  0  0  0  0  0  0  0
   29.5153   11.7369   15.7608 N   0  0  0  0  0  0  0  0  0  0  0  0
   29.4440    5.5469   16.6435 N   0  0  0  0  0  0  0  0  0  0  0  0
   28.3887    9.0404   11.8698 O   0  0  0  0  0  0  0  0  0  0  0  0
   28.5654   10.3807   12.3365 C   0  0  2  0  0  0  0  0  0  0  0  0
   25.0471    8.9168   14.3453 N   0  0  0  0  0  0  0  0  0  0  0  0
   29.2277   11.1472   10.1612 O   0  0  0  0  0  0  0  0  0  0  0  0
   29.6607   11.0764   11.5248 C   0  0  1  0  0  0  0  0  0  0  0  0
   27.7436    9.8749   14.5726 O   0  0  0  0  0  0  0  0  0  0  0  0
   29.9138   12.4894   12.0554 C   0  0  1  0  0  0  0  0  0  0  0  0
   28.5164    7.6992   14.9738 O   0  0  0  0  0  0  0  0  0  0  0  0
   30.2968   12.4472   13.5386 C   0  0  0  0  0  0  0  0  0  0  0  0
   27.2941    7.6844   18.4648 O   0  0  0  0  0  0  0  0  0  0  0  0
   29.1657   11.7898   14.3342 C   0  0  1  0  0  0  0  0  0  0  0  0
   24.8678    7.8764   17.0135 O   0  0  0  0  0  0  0  0  0  0  0  0
   28.8758   10.3700   13.8383 C   0  0  2  0  0  0  0  0  0  0  0  0
   27.4800    8.4791   14.3492 C   0  0  1  0  0  0  0  0  0  0  0  0
   28.5784    7.8453   16.4069 C   0  0  2  0  0  0  0  0  0  0  0  0
   29.6804    6.9567   16.9883 C   0  0  0  0  0  0  0  0  0  0  0  0
   27.2484    7.4496   17.0540 C   0  0  2  0  0  0  0  0  0  0  0  0
   26.1174    8.2880   16.4562 C   0  0  1  0  0  0  0  0  0  0  0  0
   26.1152    8.0998   14.9369 C   0  0  1  0  0  0  0  0  0  0  0  0
  5  4  1  6  0  0  0
  5  8  1  0  0  0  0
  5 16  1  0  0  0  0
  8  7  1  6  0  0  0
  8 10  1  0  0  0  0
 10  1  1  6  0  0  0
 10 12  1  0  0  0  0
 11 18  1  0  0  0  0
 12 14  1  0  0  0  0
 14  2  1  1  0  0  0
 14 16  1  0  0  0  0
 16  9  1  1  0  0  0
 17  9  1  1  0  0  0
 17 11  1  0  0  0  0
 17 22  1  0  0  0  0
 18 19  1  1  0  0  0
 18 20  1  0  0  0  0
 19  3  1  0  0  0  0
 20 13  1  1  0  0  0
 20 21  1  0  0  0  0
 21 15  1  1  0  0  0
 21 22  1  0  0  0  0
 22  6  1  6  0  0  0
M  END
>  <CHROM.1>
68.21796874,70.49837412,-58.35112279,28.28661002,9.44156066,14.50223913,-1.16849908
0.35750000,2.15119075

>  <Name>
2fcx_lig

>  <RI>
1.21945e+07

>  <Rbt.Current_Directory>
/home/itssahil/PROJECTS/Mol_Feturizer/New_Systems/rnas/2fcx

>  <Rbt.Executable>
rbdock ($Id: //depot/dev/client3/rdock/2013.1/src/exe/rbdock.cxx#4 $)

>  <Rbt.Library>
libRbt.so (2013.1, Build901 2013/11/27)

>  <Rbt.Parameter_File>
/export/apps/rDock/src/rDock_2013.1_src/data/scripts/dock_solv.prm

>  <Rbt.Receptor>
prm/pocket_docking_3.prm

>  <SCORE>
-13.3192

>  <SCORE.INTER>
-12.2648

>  <SCORE.INTER.CONST>
1

>  <SCORE.INTER.POLAR>
-1.34646

>  <SCORE.INTER.ROT>
3

>  <SCORE.INTER.SOLV>
21.2925

>  <SCORE.INTER.VDW>
-16.3859

>  <SCORE.INTER.norm>
-0.557493

>  <SCORE.INTRA>
-1.05438

>  <SCORE.INTRA.DIHEDRAL>
-4.01028

>  <SCORE.INTRA.DIHEDRAL.0>
4.88619

>  <SCORE.INTRA.POLAR>
0

>  <SCORE.INTRA.POLAR.0>
0

>  <SCORE.INTRA.REPUL>
0

>  <SCORE.INTRA.REPUL.0>
0

>  <SCORE.INTRA.SOLV>
0.679665

>  <SCORE.INTRA.SOLV.lig_0>
-73.8187

>  <SCORE.INTRA.VDW>
0.610926

>  <SCORE.INTRA.VDW.0>
-1.32335

>  <SCORE.INTRA.norm>
-0.0479264

>  <SCORE.RESTR>
0

>  <SCORE.RESTR.CAVITY>
0

>  <SCORE.RESTR.norm>
0

>  <SCORE.SYSTEM>
0

>  <SCORE.SYSTEM.CONST>
0

>  <SCORE.SYSTEM.DIHEDRAL>
0

>  <SCORE.SYSTEM.SOLV>
0

>  <SCORE.SYSTEM.norm>
0

>  <SCORE.heavy>
22

>  <SCORE.norm>
-0.605419

>  <RMSD>
0.968

$$$$
2fcx_lig
 OpenBabel11021811433D
libRbt.so/2013.1/901 2013/11/27
 22 23  0  0  0  0  0  0  0  0999 V2000
   31.0276   13.1007   11.2956 N   0  0  0  0  0  0  0  0  0  0  0  0
   29.4625   11.7328   15.7402 N   0  0  0  0  0  0  0  0  0  0  0  0
   29.3134    5.4956   16.4559 N   0  0  0  0  0  0  0  0  0  0  0  0
   28.3295    9.0690   11.8286 O   0  0  0  0  0  0  0  0  0  0  0  0
   28.5268   10.4044   12.3011 C   0  0  2  0  0  0  0  0  0  0  0  0
   24.9457    9.0199   14.3410 N   0  0  0  0  0  0  0  0  0  0  0  0
   29.2296   11.1633   10.1359 O   0  0  0  0  0  0  0  0  0  0  0  0
   29.6450   11.0805   11.5043 C   0  0  1  0  0  0  0  0  0  0  0  0
   27.6689    9.9090   14.5259 O   0  0  0  0  0  0  0  0  0  0  0  0
   29.9194   12.4870   12.0418 C   0  0  1  0  0  0  0  0  0  0  0  0
   28.3984    7.7071   14.8594 O   0  0  0  0  0  0  0  0  0  0  0  0
   30.2840   12.4334   13.5293 C   0  0  0  0  0  0  0  0  0  0  0  0
   27.2573    7.6400   18.3772 O   0  0  0  0  0  0  0  0  0  0  0  0
   29.1309   11.7963   14.3097 C   0  0  1  0  0  0  0  0  0  0  0  0
   24.8033    7.9224   16.9886 O   0  0  0  0  0  0  0  0  0  0  0  0
   28.8191   10.3837   13.8065 C   0  0  2  0  0  0  0  0  0  0  0  0
   27.3668    8.5253   14.2774 C   0  0  1  0  0  0  0  0  0  0  0  0
   28.4971    7.8183   16.2935 C   0  0  2  0  0  0  0  0  0  0  0  0
   29.5906    6.8910   16.8284 C   0  0  0  0  0  0  0  0  0  0  0  0
   27.1733    7.4390   16.9629 C   0  0  2  0  0  0  0  0  0  0  0  0
   26.0492    8.3174   16.4112 C   0  0  1  0  0  0  0  0  0  0  0  0
   26.0072    8.1646   14.8885 C   0  0  1  0  0  0  0  0  0  0  0  0
  5  4  1  6  0  0  0
  5  8  1  0  0  0  0
  5 16  1  0  0  0  0
  8  7  1  6  0  0  0
  8 10  1  0  0  0  0
 10  1  1  6  0  0  0
 10 12  1  0  0  0  0
 11 18  1  0  0  0  0
 12 14  1  0  0  0  0
 14  2  1  1  0  0  0
 14 16  1  0  0  0  0
 16  9  1  1  0  0  0
 17  9  1  1  0  0  0
 17 11  1  0  0  0  0
 17 22  1  0  0  0  0
 18 19  1  1  0  0  0
 18 20  1  0  0  0  0
 19  3  1  0  0  0  0
 20 13  1  1  0  0  0
 20 21  1  0  0  0  0
 21 15  1  1  0  0  0
 21 22  1  0  0  0  0
 22  6  1  6  0  0  0
M  END
>  <CHROM.1>
67.18700908,68.76900710,-58.27522139,28.22761281,9.44992008,14.44672216,-1.15828855
0.31162826,2.17379566

>  <Name>
2fcx_lig

>  <RI>
1.21945e+07

>  <Rbt.Current_Directory>
/home/itssahil/PROJECTS/Mol_Feturizer/New_Systems/rnas/2fcx

>  <Rbt.Executable>
rbdock ($Id: //depot/dev/client3/rdock/2013.1/src/exe/rbdock.cxx#4 $)

>  <Rbt.Library>
libRbt.so (2013.1, Build901 2013/11/27)

>  <Rbt.Parameter_File>
/export/apps/rDock/src/rDock_2013.1_src/data/scripts/dock_solv.prm

>  <Rbt.Receptor>
prm/pocket_docking_3.prm

>  <SCORE>
-13.268

>  <SCORE.INTER>
-12.1547

>  <SCORE.INTER.CONST>
1

>  <SCORE.INTER.POLAR>
-1.35882

>  <SCORE.INTER.ROT>
3

>  <SCORE.INTER.SOLV>
22.0339

>  <SCORE.INTER.VDW>
-16.5184

>  <SCORE.INTER.norm>
-0.552488

>  <SCORE.INTRA>
-1.11327

>  <SCORE.INTRA.DIHEDRAL>
-4.24307

>  <SCORE.INTRA.DIHEDRAL.0>
4.88619

>  <SCORE.INTRA.POLAR>
0

>  <SCORE.INTRA.POLAR.0>
0

>  <SCORE.INTRA.REPUL>
0

>  <SCORE.INTRA.REPUL.0>
0

>  <SCORE.INTRA.SOLV>
0.595092

>  <SCORE.INTRA.SOLV.lig_0>
-73.8187

>  <SCORE.INTRA.VDW>
0.710715

>  <SCORE.INTRA.VDW.0>
-1.32335

>  <SCORE.INTRA.norm>
-0.0506034

>  <SCORE.RESTR>
0

>  <SCORE.RESTR.CAVITY>
0

>  <SCORE.RESTR.norm>
0

>  <SCORE.SYSTEM>
0

>  <SCORE.SYSTEM.CONST>
0

>  <SCORE.SYSTEM.DIHEDRAL>
0

>  <SCORE.SYSTEM.SOLV>
0

>  <SCORE.SYSTEM.norm>
0

>  <SCORE.heavy>
22

>  <SCORE.norm>
-0.603092

>  <RMSD>
1.002

$$$$
2fcx_lig
 OpenBabel11021811433D
libRbt.so/2013.1/901 2013/11/27
 22 23  0  0  0  0  0  0  0  0999 V2000
   30.9765   12.8810   11.0244 N   0  0  0  0  0  0  0  0  0  0  0  0
   29.9690   11.1577   15.5066 N   0  0  0  0  0  0  0  0  0  0  0  0
   29.4222    6.5838   18.0123 N   0  0  0  0  0  0  0  0  0  0  0  0
   27.7723    9.2462   11.6079 O   0  0  0  0  0  0  0  0  0  0  0  0
   28.2651   10.4617   12.1780 C   0  0  2  0  0  0  0  0  0  0  0  0
   24.8830    9.4247   14.2217 N   0  0  0  0  0  0  0  0  0  0  0  0
   28.7133   11.4006   10.0157 O   0  0  0  0  0  0  0  0  0  0  0  0
   29.3315   11.0721   11.2655 C   0  0  1  0  0  0  0  0  0  0  0  0
   27.7199    9.7955   14.4562 O   0  0  0  0  0  0  0  0  0  0  0  0
   29.9218   12.3372   11.8925 C   0  0  1  0  0  0  0  0  0  0  0  0
   28.0353    7.4842   14.6807 O   0  0  0  0  0  0  0  0  0  0  0  0
   30.5153   12.0285   13.2712 C   0  0  0  0  0  0  0  0  0  0  0  0
   26.8622    7.4536   18.1885 O   0  0  0  0  0  0  0  0  0  0  0  0
   29.4187   11.4636   14.1786 C   0  0  1  0  0  0  0  0  0  0  0  0
   24.5152    8.2434   16.8108 O   0  0  0  0  0  0  0  0  0  0  0  0
   28.7968   10.1932   13.5912 C   0  0  2  0  0  0  0  0  0  0  0  0
   27.1752    8.5032   14.1382 C   0  0  1  0  0  0  0  0  0  0  0  0
   28.1367    7.5056   16.1188 C   0  0  2  0  0  0  0  0  0  0  0  0
   29.0384    6.3705   16.6089 C   0  0  0  0  0  0  0  0  0  0  0  0
   26.7588    7.3404   16.7658 C   0  0  2  0  0  0  0  0  0  0  0  0
   25.8183    8.4338   16.2564 C   0  0  1  0  0  0  0  0  0  0  0  0
   25.7662    8.3655   14.7278 C   0  0  1  0  0  0  0  0  0  0  0  0
  5  4  1  6  0  0  0
  5  8  1  0  0  0  0
  5 16  1  0  0  0  0
  8  7  1  6  0  0  0
  8 10  1  0  0  0  0
 10  1  1  6  0  0  0
 10 12  1  0  0  0  0
 11 18  1  0  0  0  0
 12 14  1  0  0  0  0
 14  2  1  1  0  0  0
 14 16  1  0  0  0  0
 16  9  1  1  0  0  0
 17  9  1  1  0  0  0
 17 11  1  0  0  0  0
 17 22  1  0  0  0  0
 18 19  1  1  0  0  0
 18 20  1  0  0  0  0
 19  3  1  0  0  0  0
 20 13  1  1  0  0  0
 20 21  1  0  0  0  0
 21 15  1  1  0  0  0
 21 22  1  0  0  0  0
 22  6  1  6  0  0  0
M  END
>  <CHROM.1>
68.55317507,79.67042986,165.59017261,28.05581353,9.41950227,14.34725741,-1.16937964
0.27526578,2.14051765

>  <Name>
2fcx_lig

>  <RI>
0

>  <Rbt.Current_Directory>
/home/itssahil/PROJECTS/Mol_Feturizer/New_Systems/rnas/2fcx

>  <Rbt.Executable>
rbdock ($Id: //depot/dev/client3/rdock/2013.1/src/exe/rbdock.cxx#4 $)

>  <Rbt.Library>
libRbt.so (2013.1, Build901 2013/11/27)

>  <Rbt.Parameter_File>
/export/apps/rDock/src/rDock_2013.1_src/data/scripts/dock_solv.prm

>  <Rbt.Receptor>
prm/pocket_docking_2.prm

>  <SCORE>
-14.6738

>  <SCORE.INTER>
-14.5953

>  <SCORE.INTER.CONST>
1

>  <SCORE.INTER.POLAR>
-1.00397

>  <SCORE.INTER.ROT>
3

>  <SCORE.INTER.SOLV>
15.0541

>  <SCORE.INTER.VDW>
-17.0016

>  <SCORE.INTER.norm>
-0.663421

>  <SCORE.INTRA>
-0.0785676

>  <SCORE.INTRA.DIHEDRAL>
-2.05495

>  <SCORE.INTRA.DIHEDRAL.0>
4.88619

>  <SCORE.INTRA.POLAR>
0

>  <SCORE.INTRA.POLAR.0>
0

>  <SCORE.INTRA.REPUL>
0

>  <SCORE.INTRA.REPUL.0>
0

>  <SCORE.INTRA.SOLV>
0.54065

>  <SCORE.INTRA.SOLV.lig_0>
-73.8187

>  <SCORE.INTRA.VDW>
0.678582

>  <SCORE.INTRA.VDW.0>
-1.32335

>  <SCORE.INTRA.norm>
-0.00357126

>  <SCORE.RESTR>
0

>  <SCORE.RESTR.CAVITY>
0

>  <SCORE.RESTR.norm>
0

>  <SCORE.SYSTEM>
0

>  <SCORE.SYSTEM.CONST>
0

>  <SCORE.SYSTEM.DIHEDRAL>
0

>  <SCORE.SYSTEM.SOLV>
0

>  <SCORE.SYSTEM.norm>
0

>  <SCORE.heavy>
22

>  <SCORE.norm>
-0.666993

>  <RMSD>
1.020

$$$$
2fcx_lig
 OpenBabel11021811433D
libRbt.so/2013.1/901 2013/11/27
 22 23  0  0  0  0  0  0  0  0999 V2000
   30.9681   12.8326   11.0025 N   0  0  0  0  0  0  0  0  0  0  0  0
   29.9557   11.1545   15.5007 N   0  0  0  0  0  0  0  0  0  0  0  0
   29.4070    6.5668   18.0250 N   0  0  0  0  0  0  0  0  0  0  0  0
   27.7632    9.2039   11.6189 O   0  0  0  0  0  0  0  0  0  0  0  0
   28.2554   10.4251   12.1774 C   0  0  2  0  0  0  0  0  0  0  0  0
   24.8686    9.4156   14.2462 N   0  0  0  0  0  0  0  0  0  0  0  0
   28.7060   11.3422   10.0062 O   0  0  0  0  0  0  0  0  0  0  0  0
   29.3228   11.0262   11.2599 C   0  0  1  0  0  0  0  0  0  0  0  0
   27.7077    9.7818   14.4615 O   0  0  0  0  0  0  0  0  0  0  0  0
   29.9125   12.2976   11.8749 C   0  0  1  0  0  0  0  0  0  0  0  0
   28.0201    7.4707   14.6920 O   0  0  0  0  0  0  0  0  0  0  0  0
   30.5044   12.0027   13.2573 C   0  0  0  0  0  0  0  0  0  0  0  0
   26.8692    7.4544   18.2072 O   0  0  0  0  0  0  0  0  0  0  0  0
   29.4068   11.4470   14.1690 C   0  0  1  0  0  0  0  0  0  0  0  0
   24.5150    8.2439   16.8417 O   0  0  0  0  0  0  0  0  0  0  0  0
   28.7855   10.1708   13.5938 C   0  0  2  0  0  0  0  0  0  0  0  0
   27.1585    8.4895   14.1515 C   0  0  1  0  0  0  0  0  0  0  0  0
   28.1306    7.4969   16.1294 C   0  0  2  0  0  0  0  0  0  0  0  0
   29.0333    6.3618   16.6177 C   0  0  0  0  0  0  0  0  0  0  0  0
   26.7566    7.3365   16.7856 C   0  0  2  0  0  0  0  0  0  0  0  0
   25.8149    8.4299   16.2784 C   0  0  1  0  0  0  0  0  0  0  0  0
   25.7530    8.3564   14.7504 C   0  0  1  0  0  0  0  0  0  0  0  0
  5  4  1  6  0  0  0
  5  8  1  0  0  0  0
  5 16  1  0  0  0  0
  8  7  1  6  0  0  0
  8 10  1  0  0  0  0
 10  1  1  6  0  0  0
 10 12  1  0  0  0  0
 11 18  1  0  0  0  0
 12 14  1  0  0  0  0
 14  2  1  1  0  0  0
 14 16  1  0  0  0  0
 16  9  1  1  0  0  0
 17  9  1  1  0  0  0
 17 11  1  0  0  0  0
 17 22  1  0  0  0  0
 18 19  1  1  0  0  0
 18 20  1  0  0  0  0
 19  3  1  0  0  0  0
 20 13  1  1  0  0  0
 20 21  1  0  0  0  0
 21 15  1  1  0  0  0
 21 22  1  0  0  0  0
 22  6  1  6  0  0  0
M  END
>  <CHROM.1>
68.24130464,79.29197661,166.59235566,28.04698900,9.39950212,14.35337121,-1.17010463
0.27114375,2.13531416

>  <Name>
2fcx_lig

>  <RI>
1.55453e+07

>  <Rbt.Current_Directory>
/home/itssahil/PROJECTS/Mol_Feturizer/New_Systems/rnas/2fcx

>  <Rbt.Executable>
rbdock ($Id: //depot/dev/client3/rdock/2013.1/src/exe/rbdock.cxx#4 $)

>  <Rbt.Library>
libRbt.so (2013.1, Build901 2013/11/27)

>  <Rbt.Parameter_File>
/export/apps/rDock/src/rDock_2013.1_src/data/scripts/dock_solv.prm

>  <Rbt.Receptor>
prm/pocket_docking_4.prm

>  <SCORE>
-14.7211

>  <SCORE.INTER>
-14.6052

>  <SCORE.INTER.CONST>
1

>  <SCORE.INTER.POLAR>
-1.02637

>  <SCORE.INTER.ROT>
3

>  <SCORE.INTER.SOLV>
15.246

>  <SCORE.INTER.VDW>
-16.9975

>  <SCORE.INTER.norm>
-0.663871

>  <SCORE.INTRA>
-0.115927

>  <SCORE.INTRA.DIHEDRAL>
-2.23309

>  <SCORE.INTRA.DIHEDRAL.0>
4.88619

>  <SCORE.INTRA.POLAR>
0

>  <SCORE.INTRA.POLAR.0>
0

>  <SCORE.INTRA.REPUL>
0

>  <SCORE.INTRA.REPUL.0>
0

>  <SCORE.INTRA.SOLV>
0.541885

>  <SCORE.INTRA.SOLV.lig_0>
-73.8187

>  <SCORE.INTRA.VDW>
0.729678

>  <SCORE.INTRA.VDW.0>
-1.32335

>  <SCORE.INTRA.norm>
-0.00526939

>  <SCORE.RESTR>
0

>  <SCORE.RESTR.CAVITY>
0

>  <SCORE.RESTR.norm>
0

>  <SCORE.SYSTEM>
0

>  <SCORE.SYSTEM.CONST>
0

>  <SCORE.SYSTEM.DIHEDRAL>
0

>  <SCORE.SYSTEM.SOLV>
0

>  <SCORE.SYSTEM.norm>
0

>  <SCORE.heavy>
22

>  <SCORE.norm>
-0.66914

>  <RMSD>
1.035

$$$$
2fcx_lig
 OpenBabel11021811433D
libRbt.so/2013.1/901 2013/11/27
 22 23  0  0  0  0  0  0  0  0999 V2000
   31.2598   13.6231   11.4421 N   0  0  0  0  0  0  0  0  0  0  0  0
   30.0490   11.0721   15.4547 N   0  0  0  0  0  0  0  0  0  0  0  0
   29.1468    6.7770   17.6136 N   0  0  0  0  0  0  0  0  0  0  0  0
   27.6665   10.3246   11.2780 O   0  0  0  0  0  0  0  0  0  0  0  0
   28.2902   11.3219   12.0914 C   0  0  2  0  0  0  0  0  0  0  0  0
   24.8482    9.8775   13.7551 N   0  0  0  0  0  0  0  0  0  0  0  0
   28.8488   12.6610   10.1801 O   0  0  0  0  0  0  0  0  0  0  0  0
   29.4216   11.9980   11.3134 C   0  0  1  0  0  0  0  0  0  0  0  0
   27.6654   10.2321   14.1778 O   0  0  0  0  0  0  0  0  0  0  0  0
   30.1476   13.0201   12.1912 C   0  0  1  0  0  0  0  0  0  0  0  0
   27.9761    7.9111   14.2675 O   0  0  0  0  0  0  0  0  0  0  0  0
   30.6976   12.3505   13.4551 C   0  0  0  0  0  0  0  0  0  0  0  0
   26.6020    7.6490   17.6916 O   0  0  0  0  0  0  0  0  0  0  0  0
   29.5414   11.7230   14.2387 C   0  0  1  0  0  0  0  0  0  0  0  0
   24.3357    8.5279   16.2350 O   0  0  0  0  0  0  0  0  0  0  0  0
   28.7832   10.6904   13.3991 C   0  0  2  0  0  0  0  0  0  0  0  0
   27.1450    8.9636   13.7443 C   0  0  1  0  0  0  0  0  0  0  0  0
   27.9940    7.8376   15.7074 C   0  0  2  0  0  0  0  0  0  0  0  0
   28.8702    6.6726   16.1731 C   0  0  0  0  0  0  0  0  0  0  0  0
   26.5816    7.6299   16.2609 C   0  0  2  0  0  0  0  0  0  0  0  0
   25.6679    8.7545   15.7710 C   0  0  1  0  0  0  0  0  0  0  0  0
   25.7047    8.7872   14.2408 C   0  0  1  0  0  0  0  0  0  0  0  0
  5  4  1  6  0  0  0
  5  8  1  0  0  0  0
  5 16  1  0  0  0  0
  8  7  1  6  0  0  0
  8 10  1  0  0  0  0
 10  1  1  6  0  0  0
 10 12  1  0  0  0  0
 11 18  1  0  0  0  0
 12 14  1  0  0  0  0
 14  2  1  1  0  0  0
 14 16  1  0  0  0  0
 16  9  1  1  0  0  0
 17  9  1  1  0  0  0
 17 11  1  0  0  0  0
 17 22  1  0  0  0  0
 18 19  1  6  0  0  0
 18 20  1  0  0  0  0
 19  3  1  0  0  0  0
 20 13  1  1  0  0  0
 20 21  1  0  0  0  0
 21 15  1  6  0  0  0
 21 22  1  0  0  0  0
 22  6  1  1  0  0  0
M  END
>  <CHROM.1>
80.15504290,80.07097023,166.83222689,28.02716055,9.90830039,14.12339341,-1.12173046
0.27585051,2.24270217

>  <Name>
2fcx_lig

>  <RI>
3.23342e+07

>  <Rbt.Current_Directory>
/home/itssahil/PROJECTS/Mol_Feturizer/New_Systems/rnas/2fcx

>  <Rbt.Executable>
rbdock ($Id: //depot/dev/client3/rdock/2013.1/src/exe/rbdock.cxx#4 $)

>  <Rbt.Library>
libRbt.so (2013.1, Build901 2013/11/27)

>  <Rbt.Parameter_File>
/export/apps/rDock/src/rDock_2013.1_src/data/scripts/dock_solv.prm

>  <Rbt.Receptor>
prm/pocket_docking_5.prm

>  <SCORE>
-14.7928

>  <SCORE.INTER>
-15.0046

>  <SCORE.INTER.CONST>
1

>  <SCORE.INTER.POLAR>
-1.30471

>  <SCORE.INTER.ROT>
3

>  <SCORE.INTER.SOLV>
11.4754

>  <SCORE.INTER.VDW>
-15.0792

>  <SCORE.INTER.norm>
-0.682026

>  <SCORE.INTRA>
0.211748

>  <SCORE.INTRA.DIHEDRAL>
-0.633376

>  <SCORE.INTRA.DIHEDRAL.0>
4.88619

>  <SCORE.INTRA.POLAR>
0

>  <SCORE.INTRA.POLAR.0>
0

>  <SCORE.INTRA.REPUL>
0

>  <SCORE.INTRA.REPUL.0>
0

>  <SCORE.INTRA.SOLV>
1.05678

>  <SCORE.INTRA.SOLV.lig_0>
-73.8187

>  <SCORE.INTRA.VDW>
4.52799e-05

>  <SCORE.INTRA.VDW.0>
-1.32335

>  <SCORE.INTRA.norm>
0.00962489

>  <SCORE.RESTR>
0

>  <SCORE.RESTR.CAVITY>
0

>  <SCORE.RESTR.norm>
0

>  <SCORE.SYSTEM>
0

>  <SCORE.SYSTEM.CONST>
0

>  <SCORE.SYSTEM.DIHEDRAL>
0

>  <SCORE.SYSTEM.SOLV>
0

>  <SCORE.SYSTEM.norm>
0

>  <SCORE.heavy>
22

>  <SCORE.norm>
-0.672401

>  <RMSD>
1.123

$$$$
2fcx_lig
 OpenBabel11021811433D
libRbt.so/2013.1/901 2013/11/27
 22 23  0  0  0  0  0  0  0  0999 V2000
   31.2456   13.6259   11.4132 N   0  0  0  0  0  0  0  0  0  0  0  0
   30.0707   11.0711   15.4341 N   0  0  0  0  0  0  0  0  0  0  0  0
   29.1642    6.7592   17.5880 N   0  0  0  0  0  0  0  0  0  0  0  0
   27.6466   10.3323   11.2798 O   0  0  0  0  0  0  0  0  0  0  0  0
   28.2795   11.3278   12.0885 C   0  0  2  0  0  0  0  0  0  0  0  0
   24.8513    9.8998   13.7770 N   0  0  0  0  0  0  0  0  0  0  0  0
   28.8212   12.6686   10.1736 O   0  0  0  0  0  0  0  0  0  0  0  0
   29.4041   12.0034   11.3004 C   0  0  1  0  0  0  0  0  0  0  0  0
   27.6736   10.2359   14.1794 O   0  0  0  0  0  0  0  0  0  0  0  0
   30.1400   13.0234   12.1723 C   0  0  1  0  0  0  0  0  0  0  0  0
   27.9713    7.9127   14.2567 O   0  0  0  0  0  0  0  0  0  0  0  0
   30.7015   12.3513   13.4299 C   0  0  0  0  0  0  0  0  0  0  0  0
   26.6221    7.6438   17.6902 O   0  0  0  0  0  0  0  0  0  0  0  0
   29.5521   11.7243   14.2239 C   0  0  1  0  0  0  0  0  0  0  0  0
   24.3499    8.5424   16.2550 O   0  0  0  0  0  0  0  0  0  0  0  0
   28.7844   10.6938   13.3904 C   0  0  2  0  0  0  0  0  0  0  0  0
   27.1424    8.9724   13.7445 C   0  0  1  0  0  0  0  0  0  0  0  0
   27.9999    7.8329   15.6961 C   0  0  2  0  0  0  0  0  0  0  0  0
   28.8727    6.6608   16.1500 C   0  0  0  0  0  0  0  0  0  0  0  0
   26.5906    7.6311   16.2596 C   0  0  2  0  0  0  0  0  0  0  0  0
   25.6799    8.7632   15.7816 C   0  0  1  0  0  0  0  0  0  0  0  0
   25.7050    8.8023   14.2513 C   0  0  1  0  0  0  0  0  0  0  0  0
  5  4  1  6  0  0  0
  5  8  1  0  0  0  0
  5 16  1  0  0  0  0
  8  7  1  6  0  0  0
  8 10  1  0  0  0  0
 10  1  1  6  0  0  0
 10 12  1  0  0  0  0
 11 18  1  0  0  0  0
 12 14  1  0  0  0  0
 14  2  1  1  0  0  0
 14 16  1  0  0  0  0
 16  9  1  1  0  0  0
 17  9  1  1  0  0  0
 17 11  1  0  0  0  0
 17 22  1  0  0  0  0
 18 19  1  6  0  0  0
 18 20  1  0  0  0  0
 19  3  1  0  0  0  0
 20 13  1  1  0  0  0
 20 21  1  0  0  0  0
 21 15  1  6  0  0  0
 21 22  1  0  0  0  0
 22  6  1  1  0  0  0
M  END
>  <CHROM.1>
79.81347483,80.32812686,166.67622503,28.02822824,9.91166283,14.11697584,-1.12689924
0.26727264,2.24745940

>  <Name>
2fcx_lig

>  <RI>
0

>  <Rbt.Current_Directory>
/home/itssahil/PROJECTS/Mol_Feturizer/New_Systems/rnas/2fcx

>  <Rbt.Executable>
rbdock ($Id: //depot/dev/client3/rdock/2013.1/src/exe/rbdock.cxx#4 $)

>  <Rbt.Library>
libRbt.so (2013.1, Build901 2013/11/27)

>  <Rbt.Parameter_File>
/export/apps/rDock/src/rDock_2013.1_src/data/scripts/dock_solv.prm

>  <Rbt.Receptor>
prm/pocket_docking_6.prm

>  <SCORE>
-14.8787

>  <SCORE.INTER>
-15.0918

>  <SCORE.INTER.CONST>
1

>  <SCORE.INTER.POLAR>
-1.32009

>  <SCORE.INTER.ROT>
3

>  <SCORE.INTER.SOLV>
11.6473

>  <SCORE.INTER.VDW>
-15.1433

>  <SCORE.INTER.norm>
-0.685991

>  <SCORE.INTRA>
0.21314

>  <SCORE.INTRA.DIHEDRAL>
-0.633071

>  <SCORE.INTRA.DIHEDRAL.0>
4.88619

>  <SCORE.INTRA.POLAR>
0

>  <SCORE.INTRA.POLAR.0>
0

>  <SCORE.INTRA.REPUL>
0

>  <SCORE.INTRA.REPUL.0>
0

>  <SCORE.INTRA.SOLV>
1.03936

>  <SCORE.INTRA.SOLV.lig_0>
-73.8187

>  <SCORE.INTRA.VDW>
0.00999587

>  <SCORE.INTRA.VDW.0>
-1.32335

>  <SCORE.INTRA.norm>
0.00968817

>  <SCORE.RESTR>
0

>  <SCORE.RESTR.CAVITY>
0

>  <SCORE.RESTR.norm>
0

>  <SCORE.SYSTEM>
0

>  <SCORE.SYSTEM.CONST>
0

>  <SCORE.SYSTEM.DIHEDRAL>
0

>  <SCORE.SYSTEM.SOLV>
0

>  <SCORE.SYSTEM.norm>
0

>  <SCORE.heavy>
22

>  <SCORE.norm>
-0.676303

>  <RMSD>
1.129

$$$$
2fcx_lig
 OpenBabel11021811433D
libRbt.so/2013.1/901 2013/11/27
 22 23  0  0  0  0  0  0  0  0999 V2000
   31.2160   13.6224   11.3876 N   0  0  0  0  0  0  0  0  0  0  0  0
   29.9827   11.0241   15.3629 N   0  0  0  0  0  0  0  0  0  0  0  0
   29.0789    5.8011   16.2452 N   0  0  0  0  0  0  0  0  0  0  0  0
   27.6398   10.3092   11.1581 O   0  0  0  0  0  0  0  0  0  0  0  0
   28.2518   11.3008   11.9873 C   0  0  2  0  0  0  0  0  0  0  0  0
   24.8912    9.3194   13.7838 N   0  0  0  0  0  0  0  0  0  0  0  0
   28.8205   12.6623   10.0949 O   0  0  0  0  0  0  0  0  0  0  0  0
   29.3867   11.9902   11.2262 C   0  0  1  0  0  0  0  0  0  0  0  0
   27.6141   10.1864   14.0567 O   0  0  0  0  0  0  0  0  0  0  0  0
   30.1002   13.0065   12.1208 C   0  0  1  0  0  0  0  0  0  0  0  0
   28.3059    7.9867   14.4745 O   0  0  0  0  0  0  0  0  0  0  0  0
   30.6425   12.3262   13.3823 C   0  0  0  0  0  0  0  0  0  0  0  0
   27.0232    8.0203   17.9437 O   0  0  0  0  0  0  0  0  0  0  0  0
   29.4825   11.6852   14.1493 C   0  0  1  0  0  0  0  0  0  0  0  0
   24.6304    8.2910   16.4500 O   0  0  0  0  0  0  0  0  0  0  0  0
   28.7365   10.6580   13.2925 C   0  0  2  0  0  0  0  0  0  0  0  0
   27.3074    8.7998   13.8308 C   0  0  1  0  0  0  0  0  0  0  0  0
   28.3479    8.1335   15.9083 C   0  0  2  0  0  0  0  0  0  0  0  0
   29.4089    7.2095   16.5101 C   0  0  0  0  0  0  0  0  0  0  0  0
   26.9942    7.7842   16.5327 C   0  0  2  0  0  0  0  0  0  0  0  0
   25.9027    8.6591   15.9140 C   0  0  1  0  0  0  0  0  0  0  0  0
   25.9206    8.4680   14.3951 C   0  0  1  0  0  0  0  0  0  0  0  0
  5  4  1  6  0  0  0
  5  8  1  0  0  0  0
  5 16  1  0  0  0  0
  8  7  1  6  0  0  0
  8 10  1  0  0  0  0
 10  1  1  6  0  0  0
 10 12  1  0  0  0  0
 11 18  1  0  0  0  0
 12 14  1  0  0  0  0
 14  2  1  1  0  0  0
 14 16  1  0  0  0  0
 16  9  1  1  0  0  0
 17  9  1  1  0  0  0
 17 11  1  0  0  0  0
 17 22  1  0  0  0  0
 18 19  1  1  0  0  0
 18 20  1  0  0  0  0
 19  3  1  0  0  0  0
 20 13  1  1  0  0  0
 20 21  1  0  0  0  0
 21 15  1  1  0  0  0
 21 22  1  0  0  0  0
 22  6  1  6  0  0  0
M  END
>  <CHROM.1>
94.39565183,73.30404087,-62.40219592,28.13974163,9.85766178,14.10292838,-1.16488559
0.28287636,2.24579025

>  <Name>
2fcx_lig

>  <RI>
0

>  <Rbt.Current_Directory>
/home/itssahil/PROJECTS/Mol_Feturizer/New_Systems/rnas/2fcx

>  <Rbt.Executable>
rbdock ($Id: //depot/dev/client3/rdock/2013.1/src/exe/rbdock.cxx#4 $)

>  <Rbt.Library>
libRbt.so (2013.1, Build901 2013/11/27)

>  <Rbt.Parameter_File>
/export/apps/rDock/src/rDock_2013.1_src/data/scripts/dock_solv.prm

>  <Rbt.Receptor>
prm/pocket_docking_2.prm

>  <SCORE>
-11.4549

>  <SCORE.INTER>
-12.177

>  <SCORE.INTER.CONST>
1

>  <SCORE.INTER.POLAR>
-1.39198

>  <SCORE.INTER.ROT>
3

>  <SCORE.INTER.SOLV>
17.8076

>  <SCORE.INTER.VDW>
-15.0139

>  <SCORE.INTER.norm>
-0.5535

>  <SCORE.INTRA>
0.720754

>  <SCORE.INTRA.DIHEDRAL>
0.403663

>  <SCORE.INTRA.DIHEDRAL.0>
4.88619

>  <SCORE.INTRA.POLAR>
0

>  <SCORE.INTRA.POLAR.0>
0

>  <SCORE.INTRA.REPUL>
0

>  <SCORE.INTRA.REPUL.0>
0

>  <SCORE.INTRA.SOLV>
2.16768

>  <SCORE.INTRA.SOLV.lig_0>
-73.8187

>  <SCORE.INTRA.VDW>
-0.564917

>  <SCORE.INTRA.VDW.0>
-1.32335

>  <SCORE.INTRA.norm>
0.0327615

>  <SCORE.RESTR>
0.00134223

>  <SCORE.RESTR.CAVITY>
0.00134223

>  <SCORE.RESTR.norm>
6.10104e-05

>  <SCORE.SYSTEM>
0

>  <SCORE.SYSTEM.CONST>
0

>  <SCORE.SYSTEM.DIHEDRAL>
0

>  <SCORE.SYSTEM.SOLV>
0

>  <SCORE.SYSTEM.norm>
0

>  <SCORE.heavy>
22

>  <SCORE.norm>
-0.520678

>  <RMSD>
1.140

$$$$
2fcx_lig
 OpenBabel11021811433D
libRbt.so/2013.1/901 2013/11/27
 22 23  0  0  0  0  0  0  0  0999 V2000
   31.2877   13.6119   11.3936 N   0  0  0  0  0  0  0  0  0  0  0  0
   30.0912   11.0894   15.4285 N   0  0  0  0  0  0  0  0  0  0  0  0
   29.1242    6.7769   17.5969 N   0  0  0  0  0  0  0  0  0  0  0  0
   27.6971   10.3090   11.2645 O   0  0  0  0  0  0  0  0  0  0  0  0
   28.3223   11.3129   12.0687 C   0  0  2  0  0  0  0  0  0  0  0  0
   24.8861    9.9425   13.7071 N   0  0  0  0  0  0  0  0  0  0  0  0
   28.8739   12.6383   10.1459 O   0  0  0  0  0  0  0  0  0  0  0  0
   29.4507   11.9842   11.2824 C   0  0  1  0  0  0  0  0  0  0  0  0
   27.7046   10.2378   14.1649 O   0  0  0  0  0  0  0  0  0  0  0  0
   30.1783   13.0134   12.1504 C   0  0  1  0  0  0  0  0  0  0  0  0
   27.9663    7.9107   14.2525 O   0  0  0  0  0  0  0  0  0  0  0  0
   30.7327   12.3536   13.4176 C   0  0  0  0  0  0  0  0  0  0  0  0
   26.5455    7.6693   17.6590 O   0  0  0  0  0  0  0  0  0  0  0  0
   29.5793   11.7308   14.2092 C   0  0  1  0  0  0  0  0  0  0  0  0
   24.3157    8.5982   16.1773 O   0  0  0  0  0  0  0  0  0  0  0  0
   28.8197   10.6915   13.3795 C   0  0  2  0  0  0  0  0  0  0  0  0
   27.1635    8.9813   13.7219 C   0  0  1  0  0  0  0  0  0  0  0  0
   27.9651    7.8336   15.6923 C   0  0  2  0  0  0  0  0  0  0  0  0
   28.8114    6.6497   16.1657 C   0  0  0  0  0  0  0  0  0  0  0  0
   26.5422    7.6539   16.2282 C   0  0  2  0  0  0  0  0  0  0  0  0
   25.6579    8.7982   15.7300 C   0  0  1  0  0  0  0  0  0  0  0  0
   25.7140    8.8336   14.2005 C   0  0  1  0  0  0  0  0  0  0  0  0
  5  4  1  6  0  0  0
  5  8  1  0  0  0  0
  5 16  1  0  0  0  0
  8  7  1  6  0  0  0
  8 10  1  0  0  0  0
 10  1  1  6  0  0  0
 10 12  1  0  0  0  0
 11 18  1  0  0  0  0
 12 14  1  0  0  0  0
 14  2  1  1  0  0  0
 14 16  1  0  0  0  0
 16  9  1  1  0  0  0
 17  9  1  1  0  0  0
 17 11  1  0  0  0  0
 17 22  1  0  0  0  0
 18 19  1  6  0  0  0
 18 20  1  0  0  0  0
 19  3  1  0  0  0  0
 20 13  1  1  0  0  0
 20 21  1  0  0  0  0
 21 15  1  6  0  0  0
 21 22  1  0  0  0  0
 22  6  1  1  0  0  0
M  END
>  <CHROM.1>
78.72255999,81.57454078,164.25151399,28.03522486,9.91807702,14.09414257,-1.11417060
0.27008768,2.24004324

>  <Name>
2fcx_lig

>  <RI>
0

>  <Rbt.Current_Directory>
/home/itssahil/PROJECTS/Mol_Feturizer/New_Systems/rnas/2fcx

>  <Rbt.Executable>
rbdock ($Id: //depot/dev/client3/rdock/2013.1/src/exe/rbdock.cxx#4 $)

>  <Rbt.Library>
libRbt.so (2013.1, Build901 2013/11/27)

>  <Rbt.Parameter_File>
/export/apps/rDock/src/rDock_2013.1_src/data/scripts/dock_solv.prm

>  <Rbt.Receptor>
prm/pocket_docking_2.prm

>  <SCORE>
-14.7827

>  <SCORE.INTER>
-15.0728

>  <SCORE.INTER.CONST>
1

>  <SCORE.INTER.POLAR>
-1.3176

>  <SCORE.INTER.ROT>
3

>  <SCORE.INTER.SOLV>
11.8535

>  <SCORE.INTER.VDW>
-15.2077

>  <SCORE.INTER.norm>
-0.685128

>  <SCORE.INTRA>
0.290112

>  <SCORE.INTRA.DIHEDRAL>
-0.366712

>  <SCORE.INTRA.DIHEDRAL.0>
4.88619

>  <SCORE.INTRA.POLAR>
0

>  <SCORE.INTRA.POLAR.0>
0

>  <SCORE.INTRA.REPUL>
0

>  <SCORE.INTRA.REPUL.0>
0

>  <SCORE.INTRA.SOLV>
0.946716

>  <SCORE.INTRA.SOLV.lig_0>
-73.8187

>  <SCORE.INTRA.VDW>
0.000109742

>  <SCORE.INTRA.VDW.0>
-1.32335

>  <SCORE.INTRA.norm>
0.0131869

>  <SCORE.RESTR>
0

>  <SCORE.RESTR.CAVITY>
0

>  <SCORE.RESTR.norm>
0

>  <SCORE.SYSTEM>
0

>  <SCORE.SYSTEM.CONST>
0

>  <SCORE.SYSTEM.DIHEDRAL>
0

>  <SCORE.SYSTEM.SOLV>
0

>  <SCORE.SYSTEM.norm>
0

>  <SCORE.heavy>
22

>  <SCORE.norm>
-0.671941

>  <RMSD>
1.143

$$$$
2fcx_lig
 OpenBabel11021811433D
libRbt.so/2013.1/901 2013/11/27
 22 23  0  0  0  0  0  0  0  0999 V2000
   31.2702   13.6427   11.3877 N   0  0  0  0  0  0  0  0  0  0  0  0
   30.0930   11.0860   15.4067 N   0  0  0  0  0  0  0  0  0  0  0  0
   29.1366    6.8173   17.6323 N   0  0  0  0  0  0  0  0  0  0  0  0
   27.6757   10.3443   11.2489 O   0  0  0  0  0  0  0  0  0  0  0  0
   28.3062   11.3406   12.0586 C   0  0  2  0  0  0  0  0  0  0  0  0
   24.8848    9.8924   13.7059 N   0  0  0  0  0  0  0  0  0  0  0  0
   28.8488   12.6823   10.1446 O   0  0  0  0  0  0  0  0  0  0  0  0
   29.4311   12.0178   11.2721 C   0  0  1  0  0  0  0  0  0  0  0  0
   27.6988   10.2477   14.1485 O   0  0  0  0  0  0  0  0  0  0  0  0
   30.1643   13.0386   12.1452 C   0  0  1  0  0  0  0  0  0  0  0  0
   28.0059    7.9273   14.2633 O   0  0  0  0  0  0  0  0  0  0  0  0
   30.7249   12.3672   13.4035 C   0  0  0  0  0  0  0  0  0  0  0  0
   26.6030    7.7001   17.6783 O   0  0  0  0  0  0  0  0  0  0  0  0
   29.5752   11.7386   14.1959 C   0  0  1  0  0  0  0  0  0  0  0  0
   24.3500    8.5675   16.1945 O   0  0  0  0  0  0  0  0  0  0  0  0
   28.8101   10.7072   13.3612 C   0  0  2  0  0  0  0  0  0  0  0  0
   27.1804    8.9757   13.7231 C   0  0  1  0  0  0  0  0  0  0  0  0
   28.0117    7.8678   15.7039 C   0  0  2  0  0  0  0  0  0  0  0  0
   28.8825    6.7063   16.1882 C   0  0  0  0  0  0  0  0  0  0  0  0
   26.5945    7.6672   16.2477 C   0  0  2  0  0  0  0  0  0  0  0  0
   25.6864    8.7880   15.7393 C   0  0  1  0  0  0  0  0  0  0  0  0
   25.7359    8.8059   14.2092 C   0  0  1  0  0  0  0  0  0  0  0  0
  5  4  1  6  0  0  0
  5  8  1  0  0  0  0
  5 16  1  0  0  0  0
  8  7  1  6  0  0  0
  8 10  1  0  0  0  0
 10  1  1  6  0  0  0
 10 12  1  0  0  0  0
 11 18  1  0  0  0  0
 12 14  1  0  0  0  0
 14  2  1  1  0  0  0
 14 16  1  0  0  0  0
 16  9  1  1  0  0  0
 17  9  1  1  0  0  0
 17 11  1  0  0  0  0
 17 22  1  0  0  0  0
 18 19  1  6  0  0  0
 18 20  1  0  0  0  0
 19  3  1  0  0  0  0
 20 13  1  1  0  0  0
 20 21  1  0  0  0  0
 21 15  1  6  0  0  0
 21 22  1  0  0  0  0
 22  6  1  1  0  0  0
M  END
>  <CHROM.1>
80.53818249,81.01176327,167.37601227,28.04628062,9.93230122,14.09524941,-1.12348190
0.27753869,2.23736763

>  <Name>
2fcx_lig

>  <RI>
1.55453e+07

>  <Rbt.Current_Directory>
/home/itssahil/PROJECTS/Mol_Feturizer/New_Systems/rnas/2fcx

>  <Rbt.Executable>
rbdock ($Id: //depot/dev/client3/rdock/2013.1/src/exe/rbdock.cxx#4 $)

>  <Rbt.Library>
libRbt.so (2013.1, Build901 2013/11/27)

>  <Rbt.Parameter_File>
/export/apps/rDock/src/rDock_2013.1_src/data/scripts/dock_solv.prm

>  <Rbt.Receptor>
prm/pocket_docking_4.prm

>  <SCORE>
-14.7959

>  <SCORE.INTER>
-15.1137

>  <SCORE.INTER.CONST>
1

>  <SCORE.INTER.POLAR>
-1.36301

>  <SCORE.INTER.ROT>
3

>  <SCORE.INTER.SOLV>
11.451

>  <SCORE.INTER.VDW>
-14.9495

>  <SCORE.INTER.norm>
-0.686987

>  <SCORE.INTRA>
0.317776

>  <SCORE.INTRA.DIHEDRAL>
-0.461342

>  <SCORE.INTRA.DIHEDRAL.0>
4.88619

>  <SCORE.INTRA.POLAR>
0

>  <SCORE.INTRA.POLAR.0>
0

>  <SCORE.INTRA.REPUL>
0

>  <SCORE.INTRA.REPUL.0>
0

>  <SCORE.INTRA.SOLV>
1.11102

>  <SCORE.INTRA.SOLV.lig_0>
-73.8187

>  <SCORE.INTRA.VDW>
-0.00706147

>  <SCORE.INTRA.VDW.0>
-1.32335

>  <SCORE.INTRA.norm>
0.0144444

>  <SCORE.RESTR>
0

>  <SCORE.RESTR.CAVITY>
0

>  <SCORE.RESTR.norm>
0

>  <SCORE.SYSTEM>
0

>  <SCORE.SYSTEM.CONST>
0

>  <SCORE.SYSTEM.DIHEDRAL>
0

>  <SCORE.SYSTEM.SOLV>
0

>  <SCORE.SYSTEM.norm>
0

>  <SCORE.heavy>
22

>  <SCORE.norm>
-0.672543

>  <RMSD>
1.144

$$$$
2fcx_lig
 OpenBabel11021811433D
libRbt.so/2013.1/901 2013/11/27
 22 23  0  0  0  0  0  0  0  0999 V2000
   31.2251   13.8486   11.4417 N   0  0  0  0  0  0  0  0  0  0  0  0
   30.1524   11.2270   15.4481 N   0  0  0  0  0  0  0  0  0  0  0  0
   30.1249    7.0983   16.5637 N   0  0  0  0  0  0  0  0  0  0  0  0
   27.7975   10.3783   11.2751 O   0  0  0  0  0  0  0  0  0  0  0  0
   28.3739   11.4022   12.0905 C   0  0  2  0  0  0  0  0  0  0  0  0
   25.0377    9.9821   13.4866 N   0  0  0  0  0  0  0  0  0  0  0  0
   28.8606   12.7738   10.1826 O   0  0  0  0  0  0  0  0  0  0  0  0
   29.4685   12.1357   11.3120 C   0  0  1  0  0  0  0  0  0  0  0  0
   27.8092   10.2756   14.1745 O   0  0  0  0  0  0  0  0  0  0  0  0
   30.1460   13.1891   12.1915 C   0  0  1  0  0  0  0  0  0  0  0  0
   28.0582    7.9485   14.2953 O   0  0  0  0  0  0  0  0  0  0  0  0
   30.7318   12.5428   13.4515 C   0  0  0  0  0  0  0  0  0  0  0  0
   26.3599    7.7271   17.5737 O   0  0  0  0  0  0  0  0  0  0  0  0
   29.6100   11.8565   14.2358 C   0  0  1  0  0  0  0  0  0  0  0  0
   24.2622    8.6516   15.9078 O   0  0  0  0  0  0  0  0  0  0  0  0
   28.9010   10.7910   13.3945 C   0  0  2  0  0  0  0  0  0  0  0  0
   27.3041    9.0176   13.6947 C   0  0  1  0  0  0  0  0  0  0  0  0
   27.9377    7.8789   15.7304 C   0  0  2  0  0  0  0  0  0  0  0  0
   28.7396    6.6962   16.2782 C   0  0  0  0  0  0  0  0  0  0  0  0
   26.4750    7.7042   16.1476 C   0  0  2  0  0  0  0  0  0  0  0  0
   25.6372    8.8473   15.5721 C   0  0  1  0  0  0  0  0  0  0  0  0
   25.8197    8.8746   14.0523 C   0  0  1  0  0  0  0  0  0  0  0  0
  5  4  1  6  0  0  0
  5  8  1  0  0  0  0
  5 16  1  0  0  0  0
  8  7  1  6  0  0  0
  8 10  1  0  0  0  0
 10  1  1  6  0  0  0
 10 12  1  0  0  0  0
 11 18  1  0  0  0  0
 12 14  1  0  0  0  0
 14  2  1  1  0  0  0
 14 16  1  0  0  0  0
 16  9  1  1  0  0  0
 17  9  1  1  0  0  0
 17 11  1  0  0  0  0
 17 22  1  0  0  0  0
 18 19  1  6  0  0  0
 18 20  1  0  0  0  0
 19  3  1  0  0  0  0
 20 13  1  1  0  0  0
 20 21  1  0  0  0  0
 21 15  1  6  0  0  0
 21 22  1  0  0  0  0
 22  6  1  1  0  0  0
M  END
>  <CHROM.1>
77.05352123,87.64644232,88.57820968,28.09795806,10.01835610,14.02393132,-1.09925580
0.25318423,2.28565707

>  <Name>
2fcx_lig

>  <RI>
1.55453e+07

>  <Rbt.Current_Directory>
/home/itssahil/PROJECTS/Mol_Feturizer/New_Systems/rnas/2fcx

>  <Rbt.Executable>
rbdock ($Id: //depot/dev/client3/rdock/2013.1/src/exe/rbdock.cxx#4 $)

>  <Rbt.Library>
libRbt.so (2013.1, Build901 2013/11/27)

>  <Rbt.Parameter_File>
/export/apps/rDock/src/rDock_2013.1_src/data/scripts/dock_solv.prm

>  <Rbt.Receptor>
prm/pocket_docking_4.prm

>  <SCORE>
-12.9612

>  <SCORE.INTER>
-13.9288

>  <SCORE.INTER.CONST>
1

>  <SCORE.INTER.POLAR>
-1.40638

>  <SCORE.INTER.ROT>
3

>  <SCORE.INTER.SOLV>
14.2164

>  <SCORE.INTER.VDW>
-14.9368

>  <SCORE.INTER.norm>
-0.633128

>  <SCORE.INTRA>
0.967601

>  <SCORE.INTRA.DIHEDRAL>
2.04787

>  <SCORE.INTRA.DIHEDRAL.0>
4.88619

>  <SCORE.INTRA.POLAR>
0

>  <SCORE.INTRA.POLAR.0>
0

>  <SCORE.INTRA.REPUL>
0

>  <SCORE.INTRA.REPUL.0>
0

>  <SCORE.INTRA.SOLV>
0.0890771

>  <SCORE.INTRA.SOLV.lig_0>
-73.8187

>  <SCORE.INTRA.VDW>
-0.100874

>  <SCORE.INTRA.VDW.0>
-1.32335

>  <SCORE.INTRA.norm>
0.0439818

>  <SCORE.RESTR>
0

>  <SCORE.RESTR.CAVITY>
0

>  <SCORE.RESTR.norm>
0

>  <SCORE.SYSTEM>
0

>  <SCORE.SYSTEM.CONST>
0

>  <SCORE.SYSTEM.DIHEDRAL>
0

>  <SCORE.SYSTEM.SOLV>
0

>  <SCORE.SYSTEM.norm>
0

>  <SCORE.heavy>
22

>  <SCORE.norm>
-0.589147

>  <RMSD>
1.147

$$$$
2fcx_lig
 OpenBabel11021811433D
libRbt.so/2013.1/901 2013/11/27
 22 23  0  0  0  0  0  0  0  0999 V2000
   31.2785   13.7277   11.4334 N   0  0  0  0  0  0  0  0  0  0  0  0
   30.1143   11.1063   15.4143 N   0  0  0  0  0  0  0  0  0  0  0  0
   29.1251    6.8483   17.6507 N   0  0  0  0  0  0  0  0  0  0  0  0
   27.7010   10.4133   11.2458 O   0  0  0  0  0  0  0  0  0  0  0  0
   28.3264   11.4008   12.0701 C   0  0  2  0  0  0  0  0  0  0  0  0
   24.9208    9.8970   13.6560 N   0  0  0  0  0  0  0  0  0  0  0  0
   28.8621   12.7733   10.1760 O   0  0  0  0  0  0  0  0  0  0  0  0
   29.4477   12.0952   11.2937 C   0  0  1  0  0  0  0  0  0  0  0  0
   27.7245   10.2743   14.1437 O   0  0  0  0  0  0  0  0  0  0  0  0
   30.1757   13.1069   12.1818 C   0  0  1  0  0  0  0  0  0  0  0  0
   28.0480    7.9563   14.2627 O   0  0  0  0  0  0  0  0  0  0  0  0
   30.7397   12.4200   13.4302 C   0  0  0  0  0  0  0  0  0  0  0  0
   26.5926    7.7166   17.6547 O   0  0  0  0  0  0  0  0  0  0  0  0
   29.5932   11.7739   14.2131 C   0  0  1  0  0  0  0  0  0  0  0  0
   24.3568    8.5669   16.1353 O   0  0  0  0  0  0  0  0  0  0  0  0
   28.8334   10.7510   13.3633 C   0  0  2  0  0  0  0  0  0  0  0  0
   27.2230    8.9984   13.7096 C   0  0  1  0  0  0  0  0  0  0  0  0
   28.0312    7.8962   15.7032 C   0  0  2  0  0  0  0  0  0  0  0  0
   28.9033    6.7415   16.2009 C   0  0  0  0  0  0  0  0  0  0  0  0
   26.6072    7.6842   16.2242 C   0  0  2  0  0  0  0  0  0  0  0  0
   25.6985    8.7981   15.7017 C   0  0  1  0  0  0  0  0  0  0  0  0
   25.7723    8.8170   14.1726 C   0  0  1  0  0  0  0  0  0  0  0  0
  5  4  1  6  0  0  0
  5  8  1  0  0  0  0
  5 16  1  0  0  0  0
  8  7  1  6  0  0  0
  8 10  1  0  0  0  0
 10  1  1  6  0  0  0
 10 12  1  0  0  0  0
 11 18  1  0  0  0  0
 12 14  1  0  0  0  0
 14  2  1  1  0  0  0
 14 16  1  0  0  0  0
 16  9  1  1  0  0  0
 17  9  1  1  0  0  0
 17 11  1  0  0  0  0
 17 22  1  0  0  0  0
 18 19  1  6  0  0  0
 18 20  1  0  0  0  0
 19  3  1  0  0  0  0
 20 13  1  1  0  0  0
 20 21  1  0  0  0  0
 21 15  1  6  0  0  0
 21 22  1  0  0  0  0
 22  6  1  1  0  0  0
M  END
>  <CHROM.1>
81.24780213,81.78004905,167.79978146,28.06456956,9.97028714,14.09397017,-1.12293615
0.29004406,2.24256181

>  <Name>
2fcx_lig

>  <RI>
0

>  <Rbt.Current_Directory>
/home/itssahil/PROJECTS/Mol_Feturizer/New_Systems/rnas/2fcx

>  <Rbt.Executable>
rbdock ($Id: //depot/dev/client3/rdock/2013.1/src/exe/rbdock.cxx#4 $)

>  <Rbt.Library>
libRbt.so (2013.1, Build901 2013/11/27)

>  <Rbt.Parameter_File>
/export/apps/rDock/src/rDock_2013.1_src/data/scripts/dock_solv.prm

>  <Rbt.Receptor>
prm/pocket_docking_2.prm

>  <SCORE>
-14.8222

>  <SCORE.INTER>
-15.2577

>  <SCORE.INTER.CONST>
1

>  <SCORE.INTER.POLAR>
-1.41342

>  <SCORE.INTER.ROT>
3

>  <SCORE.INTER.SOLV>
10.9705

>  <SCORE.INTER.VDW>
-14.7172

>  <SCORE.INTER.norm>
-0.69353

>  <SCORE.INTRA>
0.435498

>  <SCORE.INTRA.DIHEDRAL>
-0.247757

>  <SCORE.INTRA.DIHEDRAL.0>
4.88619

>  <SCORE.INTRA.POLAR>
0

>  <SCORE.INTRA.POLAR.0>
0

>  <SCORE.INTRA.REPUL>
0

>  <SCORE.INTRA.REPUL.0>
0

>  <SCORE.INTRA.SOLV>
1.17669

>  <SCORE.INTRA.SOLV.lig_0>
-73.8187

>  <SCORE.INTRA.VDW>
-0.0289672

>  <SCORE.INTRA.VDW.0>
-1.32335

>  <SCORE.INTRA.norm>
0.0197954

>  <SCORE.RESTR>
0

>  <SCORE.RESTR.CAVITY>
0

>  <SCORE.RESTR.norm>
0

>  <SCORE.SYSTEM>
0

>  <SCORE.SYSTEM.CONST>
0

>  <SCORE.SYSTEM.DIHEDRAL>
0

>  <SCORE.SYSTEM.SOLV>
0

>  <SCORE.SYSTEM.norm>
0

>  <SCORE.heavy>
22

>  <SCORE.norm>
-0.673735

>  <RMSD>
1.149

$$$$
2fcx_lig
 OpenBabel11021811433D
libRbt.so/2013.1/901 2013/11/27
 22 23  0  0  0  0  0  0  0  0999 V2000
   31.2721   13.6354   11.3926 N   0  0  0  0  0  0  0  0  0  0  0  0
   30.0906   11.0904   15.4177 N   0  0  0  0  0  0  0  0  0  0  0  0
   29.1572    6.7912   17.5720 N   0  0  0  0  0  0  0  0  0  0  0  0
   27.6824   10.3317   11.2578 O   0  0  0  0  0  0  0  0  0  0  0  0
   28.3100   11.3315   12.0654 C   0  0  2  0  0  0  0  0  0  0  0  0
   24.8812    9.9430   13.7062 N   0  0  0  0  0  0  0  0  0  0  0  0
   28.8544   12.6676   10.1479 O   0  0  0  0  0  0  0  0  0  0  0  0
   29.4354   12.0076   11.2788 C   0  0  1  0  0  0  0  0  0  0  0  0
   27.7000   10.2448   14.1577 O   0  0  0  0  0  0  0  0  0  0  0  0
   30.1656   13.0324   12.1499 C   0  0  1  0  0  0  0  0  0  0  0  0
   27.9681    7.9181   14.2390 O   0  0  0  0  0  0  0  0  0  0  0  0
   30.7246   12.3659   13.4115 C   0  0  0  0  0  0  0  0  0  0  0  0
   26.5563    7.6645   17.6483 O   0  0  0  0  0  0  0  0  0  0  0  0
   29.5743   11.7383   14.2037 C   0  0  1  0  0  0  0  0  0  0  0  0
   24.3204    8.5910   16.1744 O   0  0  0  0  0  0  0  0  0  0  0  0
   28.8122   10.7031   13.3710 C   0  0  2  0  0  0  0  0  0  0  0  0
   27.1611    8.9879   13.7130 C   0  0  1  0  0  0  0  0  0  0  0  0
   27.9707    7.8374   15.6785 C   0  0  2  0  0  0  0  0  0  0  0  0
   28.8212    6.6547   16.1469 C   0  0  0  0  0  0  0  0  0  0  0  0
   26.5495    7.6526   16.2175 C   0  0  2  0  0  0  0  0  0  0  0  0
   25.6610    8.7958   15.7243 C   0  0  1  0  0  0  0  0  0  0  0  0
   25.7132    8.8352   14.1947 C   0  0  1  0  0  0  0  0  0  0  0  0
  5  4  1  6  0  0  0
  5  8  1  0  0  0  0
  5 16  1  0  0  0  0
  8  7  1  6  0  0  0
  8 10  1  0  0  0  0
 10  1  1  6  0  0  0
 10 12  1  0  0  0  0
 11 18  1  0  0  0  0
 12 14  1  0  0  0  0
 14  2  1  1  0  0  0
 14 16  1  0  0  0  0
 16  9  1  1  0  0  0
 17  9  1  1  0  0  0
 17 11  1  0  0  0  0
 17 22  1  0  0  0  0
 18 19  1  6  0  0  0
 18 20  1  0  0  0  0
 19  3  1  0  0  0  0
 20 13  1  1  0  0  0
 20 21  1  0  0  0  0
 21 15  1  6  0  0  0
 21 22  1  0  0  0  0
 22  6  1  1  0  0  0
M  END
>  <CHROM.1>
78.95017823,81.55826958,163.25501038,28.03307277,9.92715033,14.08653774,-1.11756784
0.26969093,2.24445968

>  <Name>
2fcx_lig

>  <RI>
0

>  <Rbt.Current_Directory>
/home/itssahil/PROJECTS/Mol_Feturizer/New_Systems/rnas/2fcx

>  <Rbt.Executable>
rbdock ($Id: //depot/dev/client3/rdock/2013.1/src/exe/rbdock.cxx#4 $)

>  <Rbt.Library>
libRbt.so (2013.1, Build901 2013/11/27)

>  <Rbt.Parameter_File>
/export/apps/rDock/src/rDock_2013.1_src/data/scripts/dock_solv.prm

>  <Rbt.Receptor>
prm/pocket_docking_2.prm

>  <SCORE>
-14.8572

>  <SCORE.INTER>
-15.18

>  <SCORE.INTER.CONST>
1

>  <SCORE.INTER.POLAR>
-1.34491

>  <SCORE.INTER.ROT>
3

>  <SCORE.INTER.SOLV>
11.7322

>  <SCORE.INTER.VDW>
-15.1477

>  <SCORE.INTER.norm>
-0.69

>  <SCORE.INTRA>
0.322818

>  <SCORE.INTRA.DIHEDRAL>
-0.230079

>  <SCORE.INTRA.DIHEDRAL.0>
4.88619

>  <SCORE.INTRA.POLAR>
0

>  <SCORE.INTRA.POLAR.0>
0

>  <SCORE.INTRA.REPUL>
0

>  <SCORE.INTRA.REPUL.0>
0

>  <SCORE.INTRA.SOLV>
0.934998

>  <SCORE.INTRA.SOLV.lig_0>
-73.8187

>  <SCORE.INTRA.VDW>
-0.0296418

>  <SCORE.INTRA.VDW.0>
-1.32335

>  <SCORE.INTRA.norm>
0.0146735

>  <SCORE.RESTR>
0

>  <SCORE.RESTR.CAVITY>
0

>  <SCORE.RESTR.norm>
0

>  <SCORE.SYSTEM>
0

>  <SCORE.SYSTEM.CONST>
0

>  <SCORE.SYSTEM.DIHEDRAL>
0

>  <SCORE.SYSTEM.SOLV>
0

>  <SCORE.SYSTEM.norm>
0

>  <SCORE.heavy>
22

>  <SCORE.norm>
-0.675327

>  <RMSD>
1.151

$$$$
2fcx_lig
 OpenBabel11021811433D
libRbt.so/2013.1/901 2013/11/27
 22 23  0  0  0  0  0  0  0  0999 V2000
   31.2500   13.8488   11.5034 N   0  0  0  0  0  0  0  0  0  0  0  0
   30.1306   11.1547   15.4484 N   0  0  0  0  0  0  0  0  0  0  0  0
   30.0992    7.1283   16.5712 N   0  0  0  0  0  0  0  0  0  0  0  0
   27.7751   10.4311   11.2522 O   0  0  0  0  0  0  0  0  0  0  0  0
   28.3635   11.4286   12.0914 C   0  0  2  0  0  0  0  0  0  0  0  0
   25.0218    9.9322   13.4172 N   0  0  0  0  0  0  0  0  0  0  0  0
   28.8742   12.8351   10.2154 O   0  0  0  0  0  0  0  0  0  0  0  0
   29.4702   12.1639   11.3318 C   0  0  1  0  0  0  0  0  0  0  0  0
   27.7778   10.2643   14.1487 O   0  0  0  0  0  0  0  0  0  0  0  0
   30.1599   13.1880   12.2360 C   0  0  1  0  0  0  0  0  0  0  0  0
   28.0500    7.9417   14.3012 O   0  0  0  0  0  0  0  0  0  0  0  0
   30.7334   12.5060   13.4827 C   0  0  0  0  0  0  0  0  0  0  0  0
   26.2982    7.7396   17.5526 O   0  0  0  0  0  0  0  0  0  0  0  0
   29.6001   11.8183   14.2491 C   0  0  1  0  0  0  0  0  0  0  0  0
   24.2194    8.6214   15.8404 O   0  0  0  0  0  0  0  0  0  0  0  0
   28.8787   10.7815   13.3828 C   0  0  2  0  0  0  0  0  0  0  0  0
   27.2947    8.9953   13.6752 C   0  0  1  0  0  0  0  0  0  0  0  0
   27.9057    7.8875   15.7347 C   0  0  2  0  0  0  0  0  0  0  0  0
   28.7108    6.7202   16.3101 C   0  0  0  0  0  0  0  0  0  0  0  0
   26.4379    7.7014   16.1290 C   0  0  2  0  0  0  0  0  0  0  0  0
   25.5978    8.8284   15.5259 C   0  0  1  0  0  0  0  0  0  0  0  0
   25.8060    8.8400   14.0092 C   0  0  1  0  0  0  0  0  0  0  0  0
  5  4  1  6  0  0  0
  5  8  1  0  0  0  0
  5 16  1  0  0  0  0
  8  7  1  6  0  0  0
  8 10  1  0  0  0  0
 10  1  1  6  0  0  0
 10 12  1  0  0  0  0
 11 18  1  0  0  0  0
 12 14  1  0  0  0  0
 14  2  1  1  0  0  0
 14 16  1  0  0  0  0
 16  9  1  1  0  0  0
 17  9  1  1  0  0  0
 17 11  1  0  0  0  0
 17 22  1  0  0  0  0
 18 19  1  6  0  0  0
 18 20  1  0  0  0  0
 19  3  1  0  0  0  0
 20 13  1  1  0  0  0
 20 21  1  0  0  0  0
 21 15  1  6  0  0  0
 21 22  1  0  0  0  0
 22  6  1  6  0  0  0
M  END
>  <CHROM.1>
79.63896869,87.54235207,86.63510382,28.08044349,10.01496903,14.01932295,-1.09043269
0.26318961,2.28467441

>  <Name>
2fcx_lig

>  <RI>
1.15031e+07

>  <Rbt.Current_Directory>
/home/itssahil/PROJECTS/Mol_Feturizer/New_Systems/rnas/2fcx

>  <Rbt.Executable>
rbdock ($Id: //depot/dev/client3/rdock/2013.1/src/exe/rbdock.cxx#4 $)

>  <Rbt.Library>
libRbt.so (2013.1, Build901 2013/11/27)

>  <Rbt.Parameter_File>
/export/apps/rDock/src/rDock_2013.1_src/data/scripts/dock_solv.prm

>  <Rbt.Receptor>
prm/pocket_docking_8.prm

>  <SCORE>
-12.9815

>  <SCORE.INTER>
-13.9847

>  <SCORE.INTER.CONST>
1

>  <SCORE.INTER.POLAR>
-1.42261

>  <SCORE.INTER.ROT>
3

>  <SCORE.INTER.SOLV>
13.9363

>  <SCORE.INTER.VDW>
-14.8266

>  <SCORE.INTER.norm>
-0.63567

>  <SCORE.INTRA>
1.00328

>  <SCORE.INTRA.DIHEDRAL>
2.16189

>  <SCORE.INTRA.DIHEDRAL.0>
4.88619

>  <SCORE.INTRA.POLAR>
0

>  <SCORE.INTRA.POLAR.0>
0

>  <SCORE.INTRA.REPUL>
0

>  <SCORE.INTRA.REPUL.0>
0

>  <SCORE.INTRA.SOLV>
0.296513

>  <SCORE.INTRA.SOLV.lig_0>
-73.8187

>  <SCORE.INTRA.VDW>
-0.22592

>  <SCORE.INTRA.VDW.0>
-1.32335

>  <SCORE.INTRA.norm>
0.0456038

>  <SCORE.RESTR>
0

>  <SCORE.RESTR.CAVITY>
0

>  <SCORE.RESTR.norm>
0

>  <SCORE.SYSTEM>
0

>  <SCORE.SYSTEM.CONST>
0

>  <SCORE.SYSTEM.DIHEDRAL>
0

>  <SCORE.SYSTEM.SOLV>
0

>  <SCORE.SYSTEM.norm>
0

>  <SCORE.heavy>
22

>  <SCORE.norm>
-0.590067

>  <RMSD>
1.159

$$$$
2fcx_lig
 OpenBabel11021811433D
libRbt.so/2013.1/901 2013/11/27
 22 23  0  0  0  0  0  0  0  0999 V2000
   31.2568   13.5870   11.3497 N   0  0  0  0  0  0  0  0  0  0  0  0
   30.0598   11.0769   15.3922 N   0  0  0  0  0  0  0  0  0  0  0  0
   29.1552    6.7924   17.5679 N   0  0  0  0  0  0  0  0  0  0  0  0
   27.6507   10.3005   11.2361 O   0  0  0  0  0  0  0  0  0  0  0  0
   28.2827   11.3028   12.0369 C   0  0  2  0  0  0  0  0  0  0  0  0
   24.8432    9.9093   13.7271 N   0  0  0  0  0  0  0  0  0  0  0  0
   28.8352   12.6224   10.1103 O   0  0  0  0  0  0  0  0  0  0  0  0
   29.4121   11.9677   11.2463 C   0  0  1  0  0  0  0  0  0  0  0  0
   27.6658   10.2342   14.1366 O   0  0  0  0  0  0  0  0  0  0  0  0
   30.1468   12.9950   12.1106 C   0  0  1  0  0  0  0  0  0  0  0  0
   27.9516    7.9102   14.2316 O   0  0  0  0  0  0  0  0  0  0  0  0
   30.7016   12.3348   13.3773 C   0  0  0  0  0  0  0  0  0  0  0  0
   26.5896    7.6730   17.6624 O   0  0  0  0  0  0  0  0  0  0  0  0
   29.5476   11.7187   14.1732 C   0  0  1  0  0  0  0  0  0  0  0  0
   24.3268    8.5725   16.2131 O   0  0  0  0  0  0  0  0  0  0  0  0
   28.7809   10.6814   13.3474 C   0  0  2  0  0  0  0  0  0  0  0  0
   27.1297    8.9703   13.7090 C   0  0  1  0  0  0  0  0  0  0  0  0
   27.9749    7.8406   15.6716 C   0  0  2  0  0  0  0  0  0  0  0  0
   28.8403    6.6675   16.1369 C   0  0  0  0  0  0  0  0  0  0  0  0
   26.5628    7.6500   16.2319 C   0  0  2  0  0  0  0  0  0  0  0  0
   25.6594    8.7832   15.7427 C   0  0  1  0  0  0  0  0  0  0  0  0
   25.6898    8.8111   14.2122 C   0  0  1  0  0  0  0  0  0  0  0  0
  5  4  1  6  0  0  0
  5  8  1  0  0  0  0
  5 16  1  0  0  0  0
  8  7  1  6  0  0  0
  8 10  1  0  0  0  0
 10  1  1  6  0  0  0
 10 12  1  0  0  0  0
 11 18  1  0  0  0  0
 12 14  1  0  0  0  0
 14  2  1  1  0  0  0
 14 16  1  0  0  0  0
 16  9  1  1  0  0  0
 17  9  1  1  0  0  0
 17 11  1  0  0  0  0
 17 22  1  0  0  0  0
 18 19  1  6  0  0  0
 18 20  1  0  0  0  0
 19  3  1  0  0  0  0
 20 13  1  1  0  0  0
 20 21  1  0  0  0  0
 21 15  1  6  0  0  0
 21 22  1  0  0  0  0
 22  6  1  1  0  0  0
M  END
>  <CHROM.1>
79.55530322,80.37463820,165.27689976,28.01883039,9.90822022,14.07557171,-1.12146584
0.26605663,2.23772992

>  <Name>
2fcx_lig

>  <RI>
1.21945e+07

>  <Rbt.Current_Directory>
/home/itssahil/PROJECTS/Mol_Feturizer/New_Systems/rnas/2fcx

>  <Rbt.Executable>
rbdock ($Id: //depot/dev/client3/rdock/2013.1/src/exe/rbdock.cxx#4 $)

>  <Rbt.Library>
libRbt.so (2013.1, Build901 2013/11/27)

>  <Rbt.Parameter_File>
/export/apps/rDock/src/rDock_2013.1_src/data/scripts/dock_solv.prm

>  <Rbt.Receptor>
prm/pocket_docking_3.prm

>  <SCORE>
-14.871

>  <SCORE.INTER>
-15.0874

>  <SCORE.INTER.CONST>
1

>  <SCORE.INTER.POLAR>
-1.34197

>  <SCORE.INTER.ROT>
3

>  <SCORE.INTER.SOLV>
11.8773

>  <SCORE.INTER.VDW>
-15.1441

>  <SCORE.INTER.norm>
-0.685789

>  <SCORE.INTRA>
0.216334

>  <SCORE.INTRA.DIHEDRAL>
-0.537323

>  <SCORE.INTRA.DIHEDRAL.0>
4.88619

>  <SCORE.INTRA.POLAR>
0

>  <SCORE.INTRA.POLAR.0>
0

>  <SCORE.INTRA.REPUL>
0

>  <SCORE.INTRA.REPUL.0>
0

>  <SCORE.INTRA.SOLV>
0.99227

>  <SCORE.INTRA.SOLV.lig_0>
-73.8187

>  <SCORE.INTRA.VDW>
-0.0111392

>  <SCORE.INTRA.VDW.0>
-1.32335

>  <SCORE.INTRA.norm>
0.00983338

>  <SCORE.RESTR>
0

>  <SCORE.RESTR.CAVITY>
0

>  <SCORE.RESTR.norm>
0

>  <SCORE.SYSTEM>
0

>  <SCORE.SYSTEM.CONST>
0

>  <SCORE.SYSTEM.DIHEDRAL>
0

>  <SCORE.SYSTEM.SOLV>
0

>  <SCORE.SYSTEM.norm>
0

>  <SCORE.heavy>
22

>  <SCORE.norm>
-0.675956

>  <RMSD>
1.164

$$$$
2fcx_lig
 OpenBabel11021811433D
libRbt.so/2013.1/901 2013/11/27
 22 23  0  0  0  0  0  0  0  0999 V2000
   31.2653   13.6433   11.3981 N   0  0  0  0  0  0  0  0  0  0  0  0
   30.0833   11.0617   15.3997 N   0  0  0  0  0  0  0  0  0  0  0  0
   29.1377    6.7840   17.5601 N   0  0  0  0  0  0  0  0  0  0  0  0
   27.6533   10.3649   11.2416 O   0  0  0  0  0  0  0  0  0  0  0  0
   28.2907   11.3515   12.0575 C   0  0  2  0  0  0  0  0  0  0  0  0
   24.8633    9.9307   13.6973 N   0  0  0  0  0  0  0  0  0  0  0  0
   28.8362   12.7052   10.1528 O   0  0  0  0  0  0  0  0  0  0  0  0
   29.4174   12.0289   11.2739 C   0  0  1  0  0  0  0  0  0  0  0  0
   27.6820   10.2457   14.1403 O   0  0  0  0  0  0  0  0  0  0  0  0
   30.1578   13.0392   12.1533 C   0  0  1  0  0  0  0  0  0  0  0  0
   27.9611    7.9204   14.2221 O   0  0  0  0  0  0  0  0  0  0  0  0
   30.7176   12.3551   13.4051 C   0  0  0  0  0  0  0  0  0  0  0  0
   26.5606    7.6623   17.6358 O   0  0  0  0  0  0  0  0  0  0  0  0
   29.5663   11.7263   14.1951 C   0  0  1  0  0  0  0  0  0  0  0  0
   24.3161    8.5777   16.1680 O   0  0  0  0  0  0  0  0  0  0  0  0
   28.7940   10.7055   13.3541 C   0  0  2  0  0  0  0  0  0  0  0  0
   27.1476    8.9861   13.6979 C   0  0  1  0  0  0  0  0  0  0  0  0
   27.9683    7.8406   15.6617 C   0  0  2  0  0  0  0  0  0  0  0  0
   28.8257    6.6620   16.1282 C   0  0  0  0  0  0  0  0  0  0  0  0
   26.5496    7.6496   16.2050 C   0  0  2  0  0  0  0  0  0  0  0  0
   25.6544    8.7884   15.7138 C   0  0  1  0  0  0  0  0  0  0  0  0
   25.7019    8.8270   14.1840 C   0  0  1  0  0  0  0  0  0  0  0  0
  5  4  1  6  0  0  0
  5  8  1  0  0  0  0
  5 16  1  0  0  0  0
  8  7  1  6  0  0  0
  8 10  1  0  0  0  0
 10  1  1  6  0  0  0
 10 12  1  0  0  0  0
 11 18  1  0  0  0  0
 12 14  1  0  0  0  0
 14  2  1  1  0  0  0
 14 16  1  0  0  0  0
 16  9  1  1  0  0  0
 17  9  1  1  0  0  0
 17 11  1  0  0  0  0
 17 22  1  0  0  0  0
 18 19  1  6  0  0  0
 18 20  1  0  0  0  0
 19  3  1  0  0  0  0
 20 13  1  1  0  0  0
 20 21  1  0  0  0  0
 21 15  1  6  0  0  0
 21 22  1  0  0  0  0
 22  6  1  1  0  0  0
M  END
>  <CHROM.1>
79.95530780,81.26423266,164.63458677,28.02248565,9.92908278,14.07633427,-1.11958617
0.26848934,2.24821225

>  <Name>
2fcx_lig

>  <RI>
0

>  <Rbt.Current_Directory>
/home/itssahil/PROJECTS/Mol_Feturizer/New_Systems/rnas/2fcx

>  <Rbt.Executable>
rbdock ($Id: //depot/dev/client3/rdock/2013.1/src/exe/rbdock.cxx#4 $)

>  <Rbt.Library>
libRbt.so (2013.1, Build901 2013/11/27)

>  <Rbt.Parameter_File>
/export/apps/rDock/src/rDock_2013.1_src/data/scripts/dock_solv.prm

>  <Rbt.Receptor>
prm/pocket_docking_2.prm

>  <SCORE>
-14.9168

>  <SCORE.INTER>
-15.2486

>  <SCORE.INTER.CONST>
1

>  <SCORE.INTER.POLAR>
-1.37727

>  <SCORE.INTER.ROT>
3

>  <SCORE.INTER.SOLV>
11.6897

>  <SCORE.INTER.VDW>
-15.0714

>  <SCORE.INTER.norm>
-0.693118

>  <SCORE.INTRA>
0.331782

>  <SCORE.INTRA.DIHEDRAL>
-0.260907

>  <SCORE.INTRA.DIHEDRAL.0>
4.88619

>  <SCORE.INTRA.POLAR>
0

>  <SCORE.INTRA.POLAR.0>
0

>  <SCORE.INTRA.REPUL>
0

>  <SCORE.INTRA.REPUL.0>
0

>  <SCORE.INTRA.SOLV>
1.01816

>  <SCORE.INTRA.SOLV.lig_0>
-73.8187

>  <SCORE.INTRA.VDW>
-0.0468452

>  <SCORE.INTRA.VDW.0>
-1.32335

>  <SCORE.INTRA.norm>
0.015081

>  <SCORE.RESTR>
0

>  <SCORE.RESTR.CAVITY>
0

>  <SCORE.RESTR.norm>
0

>  <SCORE.SYSTEM>
0

>  <SCORE.SYSTEM.CONST>
0

>  <SCORE.SYSTEM.DIHEDRAL>
0

>  <SCORE.SYSTEM.SOLV>
0

>  <SCORE.SYSTEM.norm>
0

>  <SCORE.heavy>
22

>  <SCORE.norm>
-0.678037

>  <RMSD>
1.166

$$$$
2fcx_lig
 OpenBabel11021811433D
libRbt.so/2013.1/901 2013/11/27
 22 23  0  0  0  0  0  0  0  0999 V2000
   31.2357   13.6013   11.3490 N   0  0  0  0  0  0  0  0  0  0  0  0
   30.0625   11.0574   15.3772 N   0  0  0  0  0  0  0  0  0  0  0  0
   29.1719    6.8041   17.5704 N   0  0  0  0  0  0  0  0  0  0  0  0
   27.6161   10.3295   11.2341 O   0  0  0  0  0  0  0  0  0  0  0  0
   28.2586   11.3218   12.0391 C   0  0  2  0  0  0  0  0  0  0  0  0
   24.8324    9.8905   13.7410 N   0  0  0  0  0  0  0  0  0  0  0  0
   28.8002   12.6576   10.1206 O   0  0  0  0  0  0  0  0  0  0  0  0
   29.3839   11.9899   11.2455 C   0  0  1  0  0  0  0  0  0  0  0  0
   27.6551   10.2356   14.1336 O   0  0  0  0  0  0  0  0  0  0  0  0
   30.1297   13.0062   12.1134 C   0  0  1  0  0  0  0  0  0  0  0  0
   27.9571    7.9139   14.2337 O   0  0  0  0  0  0  0  0  0  0  0  0
   30.6924   12.3319   13.3691 C   0  0  0  0  0  0  0  0  0  0  0  0
   26.6160    7.6773   17.6727 O   0  0  0  0  0  0  0  0  0  0  0  0
   29.5427   11.7126   14.1687 C   0  0  1  0  0  0  0  0  0  0  0  0
   24.3390    8.5573   16.2337 O   0  0  0  0  0  0  0  0  0  0  0  0
   28.7652   10.6861   13.3395 C   0  0  2  0  0  0  0  0  0  0  0  0
   27.1251    8.9669   13.7127 C   0  0  1  0  0  0  0  0  0  0  0  0
   27.9890    7.8486   15.6737 C   0  0  2  0  0  0  0  0  0  0  0  0
   28.8649    6.6826   16.1374 C   0  0  0  0  0  0  0  0  0  0  0  0
   26.5814    7.6501   16.2425 C   0  0  2  0  0  0  0  0  0  0  0  0
   25.6675    8.7756   15.7551 C   0  0  1  0  0  0  0  0  0  0  0  0
   25.6892    8.7994   14.2244 C   0  0  1  0  0  0  0  0  0  0  0  0
  5  4  1  6  0  0  0
  5  8  1  0  0  0  0
  5 16  1  0  0  0  0
  8  7  1  6  0  0  0
  8 10  1  0  0  0  0
 10  1  1  6  0  0  0
 10 12  1  0  0  0  0
 11 18  1  0  0  0  0
 12 14  1  0  0  0  0
 14  2  1  1  0  0  0
 14 16  1  0  0  0  0
 16  9  1  1  0  0  0
 17  9  1  1  0  0  0
 17 11  1  0  0  0  0
 17 22  1  0  0  0  0
 18 19  1  6  0  0  0
 18 20  1  0  0  0  0
 19  3  1  0  0  0  0
 20 13  1  1  0  0  0
 20 21  1  0  0  0  0
 21 15  1  6  0  0  0
 21 22  1  0  0  0  0
 22  6  1  1  0  0  0
M  END
>  <CHROM.1>
80.55669542,80.19313818,166.04481134,28.01481662,9.91274788,14.07859194,-1.12811932
0.26471505,2.24070172

>  <Name>
2fcx_lig

>  <RI>
1.55453e+07

>  <Rbt.Current_Directory>
/home/itssahil/PROJECTS/Mol_Feturizer/New_Systems/rnas/2fcx

>  <Rbt.Executable>
rbdock ($Id: //depot/dev/client3/rdock/2013.1/src/exe/rbdock.cxx#4 $)

>  <Rbt.Library>
libRbt.so (2013.1, Build901 2013/11/27)

>  <Rbt.Parameter_File>
/export/apps/rDock/src/rDock_2013.1_src/data/scripts/dock_solv.prm

>  <Rbt.Receptor>
prm/pocket_docking_4.prm

>  <SCORE>
-14.841

>  <SCORE.INTER>
-15.0976

>  <SCORE.INTER.CONST>
1

>  <SCORE.INTER.POLAR>
-1.36678

>  <SCORE.INTER.ROT>
3

>  <SCORE.INTER.SOLV>
11.7411

>  <SCORE.INTER.VDW>
-15.0229

>  <SCORE.INTER.norm>
-0.686256

>  <SCORE.INTRA>
0.256688

>  <SCORE.INTRA.DIHEDRAL>
-0.476019

>  <SCORE.INTRA.DIHEDRAL.0>
4.88619

>  <SCORE.INTRA.POLAR>
0

>  <SCORE.INTRA.POLAR.0>
0

>  <SCORE.INTRA.REPUL>
0

>  <SCORE.INTRA.REPUL.0>
0

>  <SCORE.INTRA.SOLV>
1.06298

>  <SCORE.INTRA.SOLV.lig_0>
-73.8187

>  <SCORE.INTRA.VDW>
-0.0367927

>  <SCORE.INTRA.VDW.0>
-1.32335

>  <SCORE.INTRA.norm>
0.0116676

>  <SCORE.RESTR>
0

>  <SCORE.RESTR.CAVITY>
0

>  <SCORE.RESTR.norm>
0

>  <SCORE.SYSTEM>
0

>  <SCORE.SYSTEM.CONST>
0

>  <SCORE.SYSTEM.DIHEDRAL>
0

>  <SCORE.SYSTEM.SOLV>
0

>  <SCORE.SYSTEM.norm>
0

>  <SCORE.heavy>
22

>  <SCORE.norm>
-0.674589

>  <RMSD>
1.166

$$$$
2fcx_lig
 OpenBabel11021811433D
libRbt.so/2013.1/901 2013/11/27
 22 23  0  0  0  0  0  0  0  0999 V2000
   31.2468   13.5851   11.3482 N   0  0  0  0  0  0  0  0  0  0  0  0
   30.0627   11.0684   15.3903 N   0  0  0  0  0  0  0  0  0  0  0  0
   29.1290    6.7678   17.5687 N   0  0  0  0  0  0  0  0  0  0  0  0
   27.6390   10.3002   11.2412 O   0  0  0  0  0  0  0  0  0  0  0  0
   28.2742   11.3009   12.0416 C   0  0  2  0  0  0  0  0  0  0  0  0
   24.8404    9.9156   13.7302 N   0  0  0  0  0  0  0  0  0  0  0  0
   28.8205   12.6237   10.1155 O   0  0  0  0  0  0  0  0  0  0  0  0
   29.4011   11.9667   11.2483 C   0  0  1  0  0  0  0  0  0  0  0  0
   27.6641   10.2289   14.1415 O   0  0  0  0  0  0  0  0  0  0  0  0
   30.1392   12.9922   12.1119 C   0  0  1  0  0  0  0  0  0  0  0  0
   27.9410    7.9036   14.2317 O   0  0  0  0  0  0  0  0  0  0  0  0
   30.6981   12.3295   13.3755 C   0  0  0  0  0  0  0  0  0  0  0  0
   26.5766    7.6642   17.6614 O   0  0  0  0  0  0  0  0  0  0  0  0
   29.5466   11.7125   14.1743 C   0  0  1  0  0  0  0  0  0  0  0  0
   24.3178    8.5754   16.2131 O   0  0  0  0  0  0  0  0  0  0  0  0
   28.7766   10.6770   13.3493 C   0  0  2  0  0  0  0  0  0  0  0  0
   27.1233    8.9679   13.7111 C   0  0  1  0  0  0  0  0  0  0  0  0
   27.9634    7.8308   15.6716 C   0  0  2  0  0  0  0  0  0  0  0  0
   28.8242    6.6534   16.1347 C   0  0  0  0  0  0  0  0  0  0  0  0
   26.5504    7.6444   16.2309 C   0  0  2  0  0  0  0  0  0  0  0  0
   25.6514    8.7820   15.7437 C   0  0  1  0  0  0  0  0  0  0  0  0
   25.6826    8.8131   14.2133 C   0  0  1  0  0  0  0  0  0  0  0  0
  5  4  1  6  0  0  0
  5  8  1  0  0  0  0
  5 16  1  0  0  0  0
  8  7  1  6  0  0  0
  8 10  1  0  0  0  0
 10  1  1  6  0  0  0
 10 12  1  0  0  0  0
 11 18  1  0  0  0  0
 12 14  1  0  0  0  0
 14  2  1  1  0  0  0
 14 16  1  0  0  0  0
 16  9  1  1  0  0  0
 17  9  1  1  0  0  0
 17 11  1  0  0  0  0
 17 22  1  0  0  0  0
 18 19  1  6  0  0  0
 18 20  1  0  0  0  0
 19  3  1  0  0  0  0
 20 13  1  1  0  0  0
 20 21  1  0  0  0  0
 21 15  1  6  0  0  0
 21 22  1  0  0  0  0
 22  6  1  1  0  0  0
M  END
>  <CHROM.1>
79.37327468,80.69198900,165.77881908,28.00991413,9.90377675,14.07673976,-1.12197497
0.26367054,2.23994529

>  <Name>
2fcx_lig

>  <RI>
1.55453e+07

>  <Rbt.Current_Directory>
/home/itssahil/PROJECTS/Mol_Feturizer/New_Systems/rnas/2fcx

>  <Rbt.Executable>
rbdock ($Id: //depot/dev/client3/rdock/2013.1/src/exe/rbdock.cxx#4 $)

>  <Rbt.Library>
libRbt.so (2013.1, Build901 2013/11/27)

>  <Rbt.Parameter_File>
/export/apps/rDock/src/rDock_2013.1_src/data/scripts/dock_solv.prm

>  <Rbt.Receptor>
prm/pocket_docking_4.prm

>  <SCORE>
-14.8611

>  <SCORE.INTER>
-15.0875

>  <SCORE.INTER.CONST>
1

>  <SCORE.INTER.POLAR>
-1.33835

>  <SCORE.INTER.ROT>
3

>  <SCORE.INTER.SOLV>
11.9892

>  <SCORE.INTER.VDW>
-15.1936

>  <SCORE.INTER.norm>
-0.685798

>  <SCORE.INTRA>
0.22642

>  <SCORE.INTRA.DIHEDRAL>
-0.561702

>  <SCORE.INTRA.DIHEDRAL.0>
4.88619

>  <SCORE.INTRA.POLAR>
0

>  <SCORE.INTRA.POLAR.0>
0

>  <SCORE.INTRA.REPUL>
0

>  <SCORE.INTRA.REPUL.0>
0

>  <SCORE.INTRA.SOLV>
1.0009

>  <SCORE.INTRA.SOLV.lig_0>
-73.8187

>  <SCORE.INTRA.VDW>
0.00682

>  <SCORE.INTRA.VDW.0>
-1.32335

>  <SCORE.INTRA.norm>
0.0102918

>  <SCORE.RESTR>
0

>  <SCORE.RESTR.CAVITY>
0

>  <SCORE.RESTR.norm>
0

>  <SCORE.SYSTEM>
0

>  <SCORE.SYSTEM.CONST>
0

>  <SCORE.SYSTEM.DIHEDRAL>
0

>  <SCORE.SYSTEM.SOLV>
0

>  <SCORE.SYSTEM.norm>
0

>  <SCORE.heavy>
22

>  <SCORE.norm>
-0.675506

>  <RMSD>
1.166

$$$$
2fcx_lig
 OpenBabel11021811433D
libRbt.so/2013.1/901 2013/11/27
 22 23  0  0  0  0  0  0  0  0999 V2000
   31.2213   13.6119   11.3364 N   0  0  0  0  0  0  0  0  0  0  0  0
   30.0703   11.0742   15.3750 N   0  0  0  0  0  0  0  0  0  0  0  0
   29.1608    6.7838   17.5660 N   0  0  0  0  0  0  0  0  0  0  0  0
   27.6179   10.3218   11.2399 O   0  0  0  0  0  0  0  0  0  0  0  0
   28.2573   11.3197   12.0404 C   0  0  2  0  0  0  0  0  0  0  0  0
   24.8403    9.9041   13.7445 N   0  0  0  0  0  0  0  0  0  0  0  0
   28.7877   12.6524   10.1166 O   0  0  0  0  0  0  0  0  0  0  0  0
   29.3774   11.9910   11.2421 C   0  0  1  0  0  0  0  0  0  0  0  0
   27.6641   10.2368   14.1395 O   0  0  0  0  0  0  0  0  0  0  0  0
   30.1201   13.0136   12.1052 C   0  0  1  0  0  0  0  0  0  0  0  0
   27.9570    7.9135   14.2314 O   0  0  0  0  0  0  0  0  0  0  0  0
   30.6892   12.3459   13.3617 C   0  0  0  0  0  0  0  0  0  0  0  0
   26.6136    7.6699   17.6690 O   0  0  0  0  0  0  0  0  0  0  0  0
   29.5444   11.7232   14.1657 C   0  0  1  0  0  0  0  0  0  0  0  0
   24.3406    8.5639   16.2322 O   0  0  0  0  0  0  0  0  0  0  0  0
   28.7701   10.6904   13.3414 C   0  0  2  0  0  0  0  0  0  0  0  0
   27.1294    8.9716   13.7139 C   0  0  1  0  0  0  0  0  0  0  0  0
   27.9880    7.8430   15.6712 C   0  0  2  0  0  0  0  0  0  0  0  0
   28.8592    6.6719   16.1311 C   0  0  0  0  0  0  0  0  0  0  0  0
   26.5794    7.6479   16.2387 C   0  0  2  0  0  0  0  0  0  0  0  0
   25.6702    8.7788   15.7549 C   0  0  1  0  0  0  0  0  0  0  0  0
   25.6926    8.8079   14.2244 C   0  0  1  0  0  0  0  0  0  0  0  0
  5  4  1  6  0  0  0
  5  8  1  0  0  0  0
  5 16  1  0  0  0  0
  8  7  1  6  0  0  0
  8 10  1  0  0  0  0
 10  1  1  6  0  0  0
 10 12  1  0  0  0  0
 11 18  1  0  0  0  0
 12 14  1  0  0  0  0
 14  2  1  1  0  0  0
 14 16  1  0  0  0  0
 16  9  1  1  0  0  0
 17  9  1  1  0  0  0
 17 11  1  0  0  0  0
 17 22  1  0  0  0  0
 18 19  1  6  0  0  0
 18 20  1  0  0  0  0
 19  3  1  0  0  0  0
 20 13  1  1  0  0  0
 20 21  1  0  0  0  0
 21 15  1  6  0  0  0
 21 22  1  0  0  0  0
 22  6  1  1  0  0  0
M  END
>  <CHROM.1>
79.86315331,80.62114875,166.30904016,28.01368576,9.91441622,14.07659295,-1.12990212
0.26386564,2.24264635

>  <Name>
2fcx_lig

>  <RI>
1.55453e+07

>  <Rbt.Current_Directory>
/home/itssahil/PROJECTS/Mol_Feturizer/New_Systems/rnas/2fcx

>  <Rbt.Executable>
rbdock ($Id: //depot/dev/client3/rdock/2013.1/src/exe/rbdock.cxx#4 $)

>  <Rbt.Library>
libRbt.so (2013.1, Build901 2013/11/27)

>  <Rbt.Parameter_File>
/export/apps/rDock/src/rDock_2013.1_src/data/scripts/dock_solv.prm

>  <Rbt.Receptor>
prm/pocket_docking_4.prm

>  <SCORE>
-14.8601

>  <SCORE.INTER>
-15.1056

>  <SCORE.INTER.CONST>
1

>  <SCORE.INTER.POLAR>
-1.36787

>  <SCORE.INTER.ROT>
3

>  <SCORE.INTER.SOLV>
11.8085

>  <SCORE.INTER.VDW>
-15.047

>  <SCORE.INTER.norm>
-0.68662

>  <SCORE.INTRA>
0.245574

>  <SCORE.INTRA.DIHEDRAL>
-0.543473

>  <SCORE.INTRA.DIHEDRAL.0>
4.88619

>  <SCORE.INTRA.POLAR>
0

>  <SCORE.INTRA.POLAR.0>
0

>  <SCORE.INTRA.REPUL>
0

>  <SCORE.INTRA.REPUL.0>
0

>  <SCORE.INTRA.SOLV>
1.03958

>  <SCORE.INTRA.SOLV.lig_0>
-73.8187

>  <SCORE.INTRA.VDW>
-0.00247929

>  <SCORE.INTRA.VDW.0>
-1.32335

>  <SCORE.INTRA.norm>
0.0111624

>  <SCORE.RESTR>
0

>  <SCORE.RESTR.CAVITY>
0

>  <SCORE.RESTR.norm>
0

>  <SCORE.SYSTEM>
0

>  <SCORE.SYSTEM.CONST>
0

>  <SCORE.SYSTEM.DIHEDRAL>
0

>  <SCORE.SYSTEM.SOLV>
0

>  <SCORE.SYSTEM.norm>
0

>  <SCORE.heavy>
22

>  <SCORE.norm>
-0.675457

>  <RMSD>
1.168

$$$$
2fcx_lig
 OpenBabel11021811433D
libRbt.so/2013.1/901 2013/11/27
 22 23  0  0  0  0  0  0  0  0999 V2000
   31.2566   13.6268   11.3744 N   0  0  0  0  0  0  0  0  0  0  0  0
   30.0694   11.0802   15.3969 N   0  0  0  0  0  0  0  0  0  0  0  0
   29.1434    6.7962   17.5640 N   0  0  0  0  0  0  0  0  0  0  0  0
   27.6593   10.3314   11.2362 O   0  0  0  0  0  0  0  0  0  0  0  0
   28.2892   11.3289   12.0448 C   0  0  2  0  0  0  0  0  0  0  0  0
   24.8582    9.9234   13.6947 N   0  0  0  0  0  0  0  0  0  0  0  0
   28.8367   12.6658   10.1288 O   0  0  0  0  0  0  0  0  0  0  0  0
   29.4162   12.0033   11.2590 C   0  0  1  0  0  0  0  0  0  0  0  0
   27.6768   10.2413   14.1361 O   0  0  0  0  0  0  0  0  0  0  0  0
   30.1487   13.0254   12.1312 C   0  0  1  0  0  0  0  0  0  0  0  0
   27.9572    7.9164   14.2250 O   0  0  0  0  0  0  0  0  0  0  0  0
   30.7063   12.3563   13.3920 C   0  0  0  0  0  0  0  0  0  0  0  0
   26.5576    7.6682   17.6398 O   0  0  0  0  0  0  0  0  0  0  0  0
   29.5545   11.7305   14.1836 C   0  0  1  0  0  0  0  0  0  0  0  0
   24.3123    8.5777   16.1697 O   0  0  0  0  0  0  0  0  0  0  0  0
   28.7900   10.6980   13.3498 C   0  0  2  0  0  0  0  0  0  0  0  0
   27.1430    8.9801   13.6977 C   0  0  1  0  0  0  0  0  0  0  0  0
   27.9648    7.8411   15.6649 C   0  0  2  0  0  0  0  0  0  0  0  0
   28.8229    6.6645   16.1349 C   0  0  0  0  0  0  0  0  0  0  0  0
   26.5463    7.6509   16.2091 C   0  0  2  0  0  0  0  0  0  0  0  0
   25.6503    8.7877   15.7145 C   0  0  1  0  0  0  0  0  0  0  0  0
   25.6974    8.8216   14.1846 C   0  0  1  0  0  0  0  0  0  0  0  0
  5  4  1  6  0  0  0
  5  8  1  0  0  0  0
  5 16  1  0  0  0  0
  8  7  1  6  0  0  0
  8 10  1  0  0  0  0
 10  1  1  6  0  0  0
 10 12  1  0  0  0  0
 11 18  1  0  0  0  0
 12 14  1  0  0  0  0
 14  2  1  1  0  0  0
 14 16  1  0  0  0  0
 16  9  1  1  0  0  0
 17  9  1  1  0  0  0
 17 11  1  0  0  0  0
 17 22  1  0  0  0  0
 18 19  1  6  0  0  0
 18 20  1  0  0  0  0
 19  3  1  0  0  0  0
 20 13  1  1  0  0  0
 20 21  1  0  0  0  0
 21 15  1  6  0  0  0
 21 22  1  0  0  0  0
 22  6  1  1  0  0  0
M  END
>  <CHROM.1>
79.50033005,81.15029247,164.22550298,28.01837401,9.92248741,14.07123655,-1.11918808
0.27045724,2.24266432

>  <Name>
2fcx_lig

>  <RI>
3.23342e+07

>  <Rbt.Current_Directory>
/home/itssahil/PROJECTS/Mol_Feturizer/New_Systems/rnas/2fcx

>  <Rbt.Executable>
rbdock ($Id: //depot/dev/client3/rdock/2013.1/src/exe/rbdock.cxx#4 $)

>  <Rbt.Library>
libRbt.so (2013.1, Build901 2013/11/27)

>  <Rbt.Parameter_File>
/export/apps/rDock/src/rDock_2013.1_src/data/scripts/dock_solv.prm

>  <Rbt.Receptor>
prm/pocket_docking_5.prm

>  <SCORE>
-14.8735

>  <SCORE.INTER>
-15.1731

>  <SCORE.INTER.CONST>
1

>  <SCORE.INTER.POLAR>
-1.36492

>  <SCORE.INTER.ROT>
3

>  <SCORE.INTER.SOLV>
11.7216

>  <SCORE.INTER.VDW>
-15.0728

>  <SCORE.INTER.norm>
-0.689685

>  <SCORE.INTRA>
0.299565

>  <SCORE.INTRA.DIHEDRAL>
-0.312574

>  <SCORE.INTRA.DIHEDRAL.0>
4.88619

>  <SCORE.INTRA.POLAR>
0

>  <SCORE.INTRA.POLAR.0>
0

>  <SCORE.INTRA.REPUL>
0

>  <SCORE.INTRA.REPUL.0>
0

>  <SCORE.INTRA.SOLV>
0.980412

>  <SCORE.INTRA.SOLV.lig_0>
-73.8187

>  <SCORE.INTRA.VDW>
-0.0343541

>  <SCORE.INTRA.VDW.0>
-1.32335

>  <SCORE.INTRA.norm>
0.0136166

>  <SCORE.RESTR>
0

>  <SCORE.RESTR.CAVITY>
0

>  <SCORE.RESTR.norm>
0

>  <SCORE.SYSTEM>
0

>  <SCORE.SYSTEM.CONST>
0

>  <SCORE.SYSTEM.DIHEDRAL>
0

>  <SCORE.SYSTEM.SOLV>
0

>  <SCORE.SYSTEM.norm>
0

>  <SCORE.heavy>
22

>  <SCORE.norm>
-0.676068

>  <RMSD>
1.169

$$$$
2fcx_lig
 OpenBabel11021811433D
libRbt.so/2013.1/901 2013/11/27
 22 23  0  0  0  0  0  0  0  0999 V2000
   31.2256   13.7463   11.4124 N   0  0  0  0  0  0  0  0  0  0  0  0
   30.0943   11.1509   15.4197 N   0  0  0  0  0  0  0  0  0  0  0  0
   30.0458    7.0593   16.5398 N   0  0  0  0  0  0  0  0  0  0  0  0
   27.7429   10.3317   11.2389 O   0  0  0  0  0  0  0  0  0  0  0  0
   28.3325   11.3478   12.0546 C   0  0  2  0  0  0  0  0  0  0  0  0
   24.9661    9.9531   13.4603 N   0  0  0  0  0  0  0  0  0  0  0  0
   28.8491   12.7073   10.1459 O   0  0  0  0  0  0  0  0  0  0  0  0
   29.4420   12.0619   11.2790 C   0  0  1  0  0  0  0  0  0  0  0  0
   27.7412   10.2349   14.1386 O   0  0  0  0  0  0  0  0  0  0  0  0
   30.1329   13.1060   12.1591 C   0  0  1  0  0  0  0  0  0  0  0  0
   27.9771    7.9073   14.2739 O   0  0  0  0  0  0  0  0  0  0  0  0
   30.7030   12.4529   13.4228 C   0  0  0  0  0  0  0  0  0  0  0  0
   26.2867    7.7172   17.5584 O   0  0  0  0  0  0  0  0  0  0  0  0
   29.5671   11.7866   14.2040 C   0  0  1  0  0  0  0  0  0  0  0  0
   24.1897    8.6429   15.8923 O   0  0  0  0  0  0  0  0  0  0  0  0
   28.8443   10.7309   13.3620 C   0  0  2  0  0  0  0  0  0  0  0  0
   27.2275    8.9768   13.6684 C   0  0  1  0  0  0  0  0  0  0  0  0
   27.8602    7.8478   15.7098 C   0  0  2  0  0  0  0  0  0  0  0  0
   28.6567    6.6641   16.2631 C   0  0  0  0  0  0  0  0  0  0  0  0
   26.3976    7.6843   16.1322 C   0  0  2  0  0  0  0  0  0  0  0  0
   25.5649    8.8284   15.5515 C   0  0  1  0  0  0  0  0  0  0  0  0
   25.7433    8.8448   14.0311 C   0  0  1  0  0  0  0  0  0  0  0  0
  5  4  1  6  0  0  0
  5  8  1  0  0  0  0
  5 16  1  0  0  0  0
  8  7  1  6  0  0  0
  8 10  1  0  0  0  0
 10  1  1  6  0  0  0
 10 12  1  0  0  0  0
 11 18  1  0  0  0  0
 12 14  1  0  0  0  0
 14  2  1  1  0  0  0
 14 16  1  0  0  0  0
 16  9  1  1  0  0  0
 17  9  1  1  0  0  0
 17 11  1  0  0  0  0
 17 22  1  0  0  0  0
 18 19  1  6  0  0  0
 18 20  1  0  0  0  0
 19  3  1  0  0  0  0
 20 13  1  1  0  0  0
 20 21  1  0  0  0  0
 21 15  1  6  0  0  0
 21 22  1  0  0  0  0
 22  6  1  1  0  0  0
M  END
>  <CHROM.1>
77.72030036,86.93015028,88.47614263,28.04135111,9.97051256,13.99744224,-1.08947767
0.24586864,2.27798966

>  <Name>
2fcx_lig

>  <RI>
0

>  <Rbt.Current_Directory>
/home/itssahil/PROJECTS/Mol_Feturizer/New_Systems/rnas/2fcx

>  <Rbt.Executable>
rbdock ($Id: //depot/dev/client3/rdock/2013.1/src/exe/rbdock.cxx#4 $)

>  <Rbt.Library>
libRbt.so (2013.1, Build901 2013/11/27)

>  <Rbt.Parameter_File>
/export/apps/rDock/src/rDock_2013.1_src/data/scripts/dock_solv.prm

>  <Rbt.Receptor>
prm/pocket_docking_2.prm

>  <SCORE>
-12.9536

>  <SCORE.INTER>
-13.8886

>  <SCORE.INTER.CONST>
1

>  <SCORE.INTER.POLAR>
-1.38562

>  <SCORE.INTER.ROT>
3

>  <SCORE.INTER.SOLV>
14.5174

>  <SCORE.INTER.VDW>
-15.0794

>  <SCORE.INTER.norm>
-0.631299

>  <SCORE.INTRA>
0.935

>  <SCORE.INTRA.DIHEDRAL>
1.99949

>  <SCORE.INTRA.DIHEDRAL.0>
4.88619

>  <SCORE.INTRA.POLAR>
0

>  <SCORE.INTRA.POLAR.0>
0

>  <SCORE.INTRA.REPUL>
0

>  <SCORE.INTRA.REPUL.0>
0

>  <SCORE.INTRA.SOLV>
0.133421

>  <SCORE.INTRA.SOLV.lig_0>
-73.8187

>  <SCORE.INTRA.VDW>
-0.131454

>  <SCORE.INTRA.VDW.0>
-1.32335

>  <SCORE.INTRA.norm>
0.0425

>  <SCORE.RESTR>
0

>  <SCORE.RESTR.CAVITY>
0

>  <SCORE.RESTR.norm>
0

>  <SCORE.SYSTEM>
0

>  <SCORE.SYSTEM.CONST>
0

>  <SCORE.SYSTEM.DIHEDRAL>
0

>  <SCORE.SYSTEM.SOLV>
0

>  <SCORE.SYSTEM.norm>
0

>  <SCORE.heavy>
22

>  <SCORE.norm>
-0.588799

>  <RMSD>
1.177

$$$$
2fcx_lig
 OpenBabel11021811433D
libRbt.so/2013.1/901 2013/11/27
 22 23  0  0  0  0  0  0  0  0999 V2000
   31.1982   13.5931   11.2942 N   0  0  0  0  0  0  0  0  0  0  0  0
   30.0738   11.0752   15.3526 N   0  0  0  0  0  0  0  0  0  0  0  0
   29.1552    6.7919   17.5725 N   0  0  0  0  0  0  0  0  0  0  0  0
   27.5989   10.2976   11.2356 O   0  0  0  0  0  0  0  0  0  0  0  0
   28.2414   11.3006   12.0272 C   0  0  2  0  0  0  0  0  0  0  0  0
   24.8366    9.9078   13.7394 N   0  0  0  0  0  0  0  0  0  0  0  0
   28.7589   12.6238   10.0934 O   0  0  0  0  0  0  0  0  0  0  0  0
   29.3560   11.9692   11.2190 C   0  0  1  0  0  0  0  0  0  0  0  0
   27.6617   10.2280   14.1354 O   0  0  0  0  0  0  0  0  0  0  0  0
   30.1022   12.9973   12.0724 C   0  0  1  0  0  0  0  0  0  0  0  0
   27.9429    7.9037   14.2369 O   0  0  0  0  0  0  0  0  0  0  0  0
   30.6794   12.3370   13.3291 C   0  0  0  0  0  0  0  0  0  0  0  0
   26.5956    7.6806   17.6744 O   0  0  0  0  0  0  0  0  0  0  0  0
   29.5401   11.7171   14.1430 C   0  0  1  0  0  0  0  0  0  0  0  0
   24.3283    8.5803   16.2321 O   0  0  0  0  0  0  0  0  0  0  0  0
   28.7625   10.6789   13.3286 C   0  0  2  0  0  0  0  0  0  0  0  0
   27.1210    8.9638   13.7144 C   0  0  1  0  0  0  0  0  0  0  0  0
   27.9725    7.8388   15.6769 C   0  0  2  0  0  0  0  0  0  0  0  0
   28.8374    6.6653   16.1423 C   0  0  0  0  0  0  0  0  0  0  0  0
   26.5624    7.6530   16.2441 C   0  0  2  0  0  0  0  0  0  0  0  0
   25.6592    8.7865   15.7551 C   0  0  1  0  0  0  0  0  0  0  0  0
   25.6830    8.8093   14.2244 C   0  0  1  0  0  0  0  0  0  0  0  0
  5  4  1  6  0  0  0
  5  8  1  0  0  0  0
  5 16  1  0  0  0  0
  8  7  1  6  0  0  0
  8 10  1  0  0  0  0
 10  1  1  6  0  0  0
 10 12  1  0  0  0  0
 11 18  1  0  0  0  0
 12 14  1  0  0  0  0
 14  2  1  1  0  0  0
 14 16  1  0  0  0  0
 16  9  1  1  0  0  0
 17  9  1  1  0  0  0
 17 11  1  0  0  0  0
 17 22  1  0  0  0  0
 18 19  1  6  0  0  0
 18 20  1  0  0  0  0
 19  3  1  0  0  0  0
 20 13  1  1  0  0  0
 20 21  1  0  0  0  0
 21 15  1  6  0  0  0
 21 22  1  0  0  0  0
 22  6  1  1  0  0  0
M  END
>  <CHROM.1>
79.50050214,81.17492397,165.46438675,28.00067895,9.90812207,14.06778451,-1.13172281
0.26092735,2.23877761

>  <Name>
2fcx_lig

>  <RI>
1.21945e+07

>  <Rbt.Current_Directory>
/home/itssahil/PROJECTS/Mol_Feturizer/New_Systems/rnas/2fcx

>  <Rbt.Executable>
rbdock ($Id: //depot/dev/client3/rdock/2013.1/src/exe/rbdock.cxx#4 $)

>  <Rbt.Library>
libRbt.so (2013.1, Build901 2013/11/27)

>  <Rbt.Parameter_File>
/export/apps/rDock/src/rDock_2013.1_src/data/scripts/dock_solv.prm

>  <Rbt.Receptor>
prm/pocket_docking_3.prm

>  <SCORE>
-14.8336

>  <SCORE.INTER>
-15.1153

>  <SCORE.INTER.CONST>
1

>  <SCORE.INTER.POLAR>
-1.36191

>  <SCORE.INTER.ROT>
3

>  <SCORE.INTER.SOLV>
11.9542

>  <SCORE.INTER.VDW>
-15.1219

>  <SCORE.INTER.norm>
-0.687061

>  <SCORE.INTRA>
0.281788

>  <SCORE.INTRA.DIHEDRAL>
-0.430603

>  <SCORE.INTRA.DIHEDRAL.0>
4.88619

>  <SCORE.INTRA.POLAR>
0

>  <SCORE.INTRA.POLAR.0>
0

>  <SCORE.INTRA.REPUL>
0

>  <SCORE.INTRA.REPUL.0>
0

>  <SCORE.INTRA.SOLV>
1.01083

>  <SCORE.INTRA.SOLV.lig_0>
-73.8187

>  <SCORE.INTRA.VDW>
-0.00832367

>  <SCORE.INTRA.VDW.0>
-1.32335

>  <SCORE.INTRA.norm>
0.0128085

>  <SCORE.RESTR>
0

>  <SCORE.RESTR.CAVITY>
0

>  <SCORE.RESTR.norm>
0

>  <SCORE.SYSTEM>
0

>  <SCORE.SYSTEM.CONST>
0

>  <SCORE.SYSTEM.DIHEDRAL>
0

>  <SCORE.SYSTEM.SOLV>
0

>  <SCORE.SYSTEM.norm>
0

>  <SCORE.heavy>
22

>  <SCORE.norm>
-0.674253

>  <RMSD>
1.179

$$$$
2fcx_lig
 OpenBabel11021811433D
libRbt.so/2013.1/901 2013/11/27
 22 23  0  0  0  0  0  0  0  0999 V2000
   31.2048   13.6056   11.2985 N   0  0  0  0  0  0  0  0  0  0  0  0
   30.0700   11.0874   15.3537 N   0  0  0  0  0  0  0  0  0  0  0  0
   29.1558    6.8025   17.5617 N   0  0  0  0  0  0  0  0  0  0  0  0
   27.6143   10.3008   11.2269 O   0  0  0  0  0  0  0  0  0  0  0  0
   28.2510   11.3060   12.0205 C   0  0  2  0  0  0  0  0  0  0  0  0
   24.8421    9.9157   13.7147 N   0  0  0  0  0  0  0  0  0  0  0  0
   28.7732   12.6293   10.0881 O   0  0  0  0  0  0  0  0  0  0  0  0
   29.3672   11.9769   11.2166 C   0  0  1  0  0  0  0  0  0  0  0  0
   27.6652   10.2331   14.1269 O   0  0  0  0  0  0  0  0  0  0  0  0
   30.1072   13.0075   12.0725 C   0  0  1  0  0  0  0  0  0  0  0  0
   27.9441    7.9085   14.2264 O   0  0  0  0  0  0  0  0  0  0  0  0
   30.6807   12.3495   13.3320 C   0  0  0  0  0  0  0  0  0  0  0  0
   26.5774    7.6812   17.6560 O   0  0  0  0  0  0  0  0  0  0  0  0
   29.5397   11.7271   14.1415 C   0  0  1  0  0  0  0  0  0  0  0  0
   24.3189    8.5848   16.2025 O   0  0  0  0  0  0  0  0  0  0  0  0
   28.7682   10.6864   13.3245 C   0  0  2  0  0  0  0  0  0  0  0  0
   27.1259    8.9700   13.7010 C   0  0  1  0  0  0  0  0  0  0  0  0
   27.9655    7.8413   15.6665 C   0  0  2  0  0  0  0  0  0  0  0  0
   28.8270    6.6665   16.1349 C   0  0  0  0  0  0  0  0  0  0  0  0
   26.5522    7.6558   16.2255 C   0  0  2  0  0  0  0  0  0  0  0  0
   25.6526    8.7907   15.7332 C   0  0  1  0  0  0  0  0  0  0  0  0
   25.6849    8.8159   14.2028 C   0  0  1  0  0  0  0  0  0  0  0  0
  5  4  1  6  0  0  0
  5  8  1  0  0  0  0
  5 16  1  0  0  0  0
  8  7  1  6  0  0  0
  8 10  1  0  0  0  0
 10  1  1  6  0  0  0
 10 12  1  0  0  0  0
 11 18  1  0  0  0  0
 12 14  1  0  0  0  0
 14  2  1  1  0  0  0
 14 16  1  0  0  0  0
 16  9  1  1  0  0  0
 17  9  1  1  0  0  0
 17 11  1  0  0  0  0
 17 22  1  0  0  0  0
 18 19  1  6  0  0  0
 18 20  1  0  0  0  0
 19  3  1  0  0  0  0
 20 13  1  1  0  0  0
 20 21  1  0  0  0  0
 21 15  1  6  0  0  0
 21 22  1  0  0  0  0
 22  6  1  1  0  0  0
M  END
>  <CHROM.1>
79.25145525,81.35404989,164.50848572,28.00161202,9.91456128,14.05785439,-1.12857554
0.26428622,2.23882064

>  <Name>
2fcx_lig

>  <RI>
3.23342e+07

>  <Rbt.Current_Directory>
/home/itssahil/PROJECTS/Mol_Feturizer/New_Systems/rnas/2fcx

>  <Rbt.Executable>
rbdock ($Id: //depot/dev/client3/rdock/2013.1/src/exe/rbdock.cxx#4 $)

>  <Rbt.Library>
libRbt.so (2013.1, Build901 2013/11/27)

>  <Rbt.Parameter_File>
/export/apps/rDock/src/rDock_2013.1_src/data/scripts/dock_solv.prm

>  <Rbt.Receptor>
prm/pocket_docking_5.prm

>  <SCORE>
-14.9026

>  <SCORE.INTER>
-15.1999

>  <SCORE.INTER.CONST>
1

>  <SCORE.INTER.POLAR>
-1.37362

>  <SCORE.INTER.ROT>
3

>  <SCORE.INTER.SOLV>
11.905

>  <SCORE.INTER.VDW>
-15.1229

>  <SCORE.INTER.norm>
-0.690905

>  <SCORE.INTRA>
0.297333

>  <SCORE.INTRA.DIHEDRAL>
-0.346565

>  <SCORE.INTRA.DIHEDRAL.0>
4.88619

>  <SCORE.INTRA.POLAR>
0

>  <SCORE.INTRA.POLAR.0>
0

>  <SCORE.INTRA.REPUL>
0

>  <SCORE.INTRA.REPUL.0>
0

>  <SCORE.INTRA.SOLV>
0.977743

>  <SCORE.INTRA.SOLV.lig_0>
-73.8187

>  <SCORE.INTRA.VDW>
-0.0182554

>  <SCORE.INTRA.VDW.0>
-1.32335

>  <SCORE.INTRA.norm>
0.0135152

>  <SCORE.RESTR>
0

>  <SCORE.RESTR.CAVITY>
0

>  <SCORE.RESTR.norm>
0

>  <SCORE.SYSTEM>
0

>  <SCORE.SYSTEM.CONST>
0

>  <SCORE.SYSTEM.DIHEDRAL>
0

>  <SCORE.SYSTEM.SOLV>
0

>  <SCORE.SYSTEM.norm>
0

>  <SCORE.heavy>
22

>  <SCORE.norm>
-0.67739

>  <RMSD>
1.186

$$$$
2fcx_lig
 OpenBabel11021811433D
libRbt.so/2013.1/901 2013/11/27
 22 23  0  0  0  0  0  0  0  0999 V2000
   31.2145   13.6110   11.3196 N   0  0  0  0  0  0  0  0  0  0  0  0
   30.0598   11.0859   15.3650 N   0  0  0  0  0  0  0  0  0  0  0  0
   29.1443    6.7936   17.5534 N   0  0  0  0  0  0  0  0  0  0  0  0
   27.6238   10.3070   11.2251 O   0  0  0  0  0  0  0  0  0  0  0  0
   28.2568   11.3106   12.0235 C   0  0  2  0  0  0  0  0  0  0  0  0
   24.8387    9.9169   13.7056 N   0  0  0  0  0  0  0  0  0  0  0  0
   28.7885   12.6373   10.0960 O   0  0  0  0  0  0  0  0  0  0  0  0
   29.3770   11.9828   11.2261 C   0  0  1  0  0  0  0  0  0  0  0  0
   27.6608   10.2343   14.1253 O   0  0  0  0  0  0  0  0  0  0  0  0
   30.1130   13.0118   12.0873 C   0  0  1  0  0  0  0  0  0  0  0  0
   27.9404    7.9094   14.2184 O   0  0  0  0  0  0  0  0  0  0  0  0
   30.6805   12.3514   13.3484 C   0  0  0  0  0  0  0  0  0  0  0  0
   26.5659    7.6713   17.6441 O   0  0  0  0  0  0  0  0  0  0  0  0
   29.5354   11.7279   14.1514 C   0  0  1  0  0  0  0  0  0  0  0  0
   24.3103    8.5783   16.1881 O   0  0  0  0  0  0  0  0  0  0  0  0
   28.7677   10.6887   13.3289 C   0  0  2  0  0  0  0  0  0  0  0  0
   27.1230    8.9722   13.6943 C   0  0  1  0  0  0  0  0  0  0  0  0
   27.9585    7.8380   15.6584 C   0  0  2  0  0  0  0  0  0  0  0  0
   28.8194    6.6621   16.1252 C   0  0  0  0  0  0  0  0  0  0  0  0
   26.5440    7.6502   16.2135 C   0  0  2  0  0  0  0  0  0  0  0  0
   25.6451    8.7862   15.7226 C   0  0  1  0  0  0  0  0  0  0  0  0
   25.6809    8.8160   14.1923 C   0  0  1  0  0  0  0  0  0  0  0  0
  5  4  1  6  0  0  0
  5  8  1  0  0  0  0
  5 16  1  0  0  0  0
  8  7  1  6  0  0  0
  8 10  1  0  0  0  0
 10  1  1  6  0  0  0
 10 12  1  0  0  0  0
 11 18  1  0  0  0  0
 12 14  1  0  0  0  0
 14  2  1  1  0  0  0
 14 16  1  0  0  0  0
 16  9  1  1  0  0  0
 17  9  1  1  0  0  0
 17 11  1  0  0  0  0
 17 22  1  0  0  0  0
 18 19  1  6  0  0  0
 18 20  1  0  0  0  0
 19  3  1  0  0  0  0
 20 13  1  1  0  0  0
 20 21  1  0  0  0  0
 21 15  1  6  0  0  0
 21 22  1  0  0  0  0
 22  6  1  1  0  0  0
M  END
>  <CHROM.1>
79.23208381,81.20029205,164.53925434,27.99984318,9.91455061,14.05702336,-1.12543457
0.26630483,2.24054006

>  <Name>
2fcx_lig

>  <RI>
0

>  <Rbt.Current_Directory>
/home/itssahil/PROJECTS/Mol_Feturizer/New_Systems/rnas/2fcx

>  <Rbt.Executable>
rbdock ($Id: //depot/dev/client3/rdock/2013.1/src/exe/rbdock.cxx#4 $)

>  <Rbt.Library>
libRbt.so (2013.1, Build901 2013/11/27)

>  <Rbt.Parameter_File>
/export/apps/rDock/src/rDock_2013.1_src/data/scripts/dock_solv.prm

>  <Rbt.Receptor>
prm/pocket_docking_2.prm

>  <SCORE>
-14.8924

>  <SCORE.INTER>
-15.1741

>  <SCORE.INTER.CONST>
1

>  <SCORE.INTER.POLAR>
-1.3726

>  <SCORE.INTER.ROT>
3

>  <SCORE.INTER.SOLV>
11.8748

>  <SCORE.INTER.VDW>
-15.099

>  <SCORE.INTER.norm>
-0.68973

>  <SCORE.INTRA>
0.281652

>  <SCORE.INTRA.DIHEDRAL>
-0.378738

>  <SCORE.INTRA.DIHEDRAL.0>
4.88619

>  <SCORE.INTRA.POLAR>
0

>  <SCORE.INTRA.POLAR.0>
0

>  <SCORE.INTRA.REPUL>
0

>  <SCORE.INTRA.REPUL.0>
0

>  <SCORE.INTRA.SOLV>
0.974058

>  <SCORE.INTRA.SOLV.lig_0>
-73.8187

>  <SCORE.INTRA.VDW>
-0.0160078

>  <SCORE.INTRA.VDW.0>
-1.32335

>  <SCORE.INTRA.norm>
0.0128024

>  <SCORE.RESTR>
0

>  <SCORE.RESTR.CAVITY>
0

>  <SCORE.RESTR.norm>
0

>  <SCORE.SYSTEM>
0

>  <SCORE.SYSTEM.CONST>
0

>  <SCORE.SYSTEM.DIHEDRAL>
0

>  <SCORE.SYSTEM.SOLV>
0

>  <SCORE.SYSTEM.norm>
0

>  <SCORE.heavy>
22

>  <SCORE.norm>
-0.676928

>  <RMSD>
1.187

$$$$
2fcx_lig
 OpenBabel11021811433D
libRbt.so/2013.1/901 2013/11/27
 22 23  0  0  0  0  0  0  0  0999 V2000
   31.2434   13.6383   11.3372 N   0  0  0  0  0  0  0  0  0  0  0  0
   30.1186   11.0281   15.3368 N   0  0  0  0  0  0  0  0  0  0  0  0
   29.1325    6.8009   17.5580 N   0  0  0  0  0  0  0  0  0  0  0  0
   27.6042   10.3885   11.2199 O   0  0  0  0  0  0  0  0  0  0  0  0
   28.2646   11.3626   12.0325 C   0  0  2  0  0  0  0  0  0  0  0  0
   24.8670    9.9391   13.6762 N   0  0  0  0  0  0  0  0  0  0  0  0
   28.7839   12.7300   10.1302 O   0  0  0  0  0  0  0  0  0  0  0  0
   29.3812   12.0390   11.2336 C   0  0  1  0  0  0  0  0  0  0  0  0
   27.6875   10.2419   14.1163 O   0  0  0  0  0  0  0  0  0  0  0  0
   30.1461   13.0354   12.1080 C   0  0  1  0  0  0  0  0  0  0  0  0
   27.9540    7.9157   14.2144 O   0  0  0  0  0  0  0  0  0  0  0  0
   30.7244   12.3354   13.3424 C   0  0  0  0  0  0  0  0  0  0  0  0
   26.5530    7.6893   17.6301 O   0  0  0  0  0  0  0  0  0  0  0  0
   29.5837   11.7079   14.1485 C   0  0  1  0  0  0  0  0  0  0  0  0
   24.3132    8.6065   16.1564 O   0  0  0  0  0  0  0  0  0  0  0  0
   28.7878   10.7007   13.3132 C   0  0  2  0  0  0  0  0  0  0  0  0
   27.1462    8.9822   13.6829 C   0  0  1  0  0  0  0  0  0  0  0  0
   27.9611    7.8460   15.6545 C   0  0  2  0  0  0  0  0  0  0  0  0
   28.8122    6.6661   16.1291 C   0  0  0  0  0  0  0  0  0  0  0  0
   26.5416    7.6665   16.1994 C   0  0  2  0  0  0  0  0  0  0  0  0
   25.6524    8.8067   15.7004 C   0  0  1  0  0  0  0  0  0  0  0  0
   25.6997    8.8343   14.1704 C   0  0  1  0  0  0  0  0  0  0  0  0
  5  4  1  6  0  0  0
  5  8  1  0  0  0  0
  5 16  1  0  0  0  0
  8  7  1  6  0  0  0
  8 10  1  0  0  0  0
 10  1  1  6  0  0  0
 10 12  1  0  0  0  0
 11 18  1  0  0  0  0
 12 14  1  0  0  0  0
 14  2  1  1  0  0  0
 14 16  1  0  0  0  0
 16  9  1  1  0  0  0
 17  9  1  1  0  0  0
 17 11  1  0  0  0  0
 17 22  1  0  0  0  0
 18 19  1  6  0  0  0
 18 20  1  0  0  0  0
 19  3  1  0  0  0  0
 20 13  1  1  0  0  0
 20 21  1  0  0  0  0
 21 15  1  6  0  0  0
 21 22  1  0  0  0  0
 22  6  1  1  0  0  0
M  END
>  <CHROM.1>
80.70311258,82.22866474,164.27588692,28.01336942,9.93430916,14.05149026,-1.12546818
0.26010746,2.24847691

>  <Name>
2fcx_lig

>  <RI>
1.21945e+07

>  <Rbt.Current_Directory>
/home/itssahil/PROJECTS/Mol_Feturizer/New_Systems/rnas/2fcx

>  <Rbt.Executable>
rbdock ($Id: //depot/dev/client3/rdock/2013.1/src/exe/rbdock.cxx#4 $)

>  <Rbt.Library>
libRbt.so (2013.1, Build901 2013/11/27)

>  <Rbt.Parameter_File>
/export/apps/rDock/src/rDock_2013.1_src/data/scripts/dock_solv.prm

>  <Rbt.Receptor>
prm/pocket_docking_3.prm

>  <SCORE>
-14.8636

>  <SCORE.INTER>
-15.3402

>  <SCORE.INTER.CONST>
1

>  <SCORE.INTER.POLAR>
-1.43124

>  <SCORE.INTER.ROT>
3

>  <SCORE.INTER.SOLV>
11.8633

>  <SCORE.INTER.VDW>
-15.0105

>  <SCORE.INTER.norm>
-0.697284

>  <SCORE.INTRA>
0.476687

>  <SCORE.INTRA.DIHEDRAL>
0.0634179

>  <SCORE.INTRA.DIHEDRAL.0>
4.88619

>  <SCORE.INTRA.POLAR>
0

>  <SCORE.INTRA.POLAR.0>
0

>  <SCORE.INTRA.REPUL>
0

>  <SCORE.INTRA.REPUL.0>
0

>  <SCORE.INTRA.SOLV>
1.07156

>  <SCORE.INTRA.SOLV.lig_0>
-73.8187

>  <SCORE.INTRA.VDW>
-0.0908028

>  <SCORE.INTRA.VDW.0>
-1.32335

>  <SCORE.INTRA.norm>
0.0216676

>  <SCORE.RESTR>
0

>  <SCORE.RESTR.CAVITY>
0

>  <SCORE.RESTR.norm>
0

>  <SCORE.SYSTEM>
0

>  <SCORE.SYSTEM.CONST>
0

>  <SCORE.SYSTEM.DIHEDRAL>
0

>  <SCORE.SYSTEM.SOLV>
0

>  <SCORE.SYSTEM.norm>
0

>  <SCORE.heavy>
22

>  <SCORE.norm>
-0.675616

>  <RMSD>
1.192

$$$$
2fcx_lig
 OpenBabel11021811433D
libRbt.so/2013.1/901 2013/11/27
 22 23  0  0  0  0  0  0  0  0999 V2000
   31.1850   13.6390   11.3161 N   0  0  0  0  0  0  0  0  0  0  0  0
   30.0960   11.0316   15.3274 N   0  0  0  0  0  0  0  0  0  0  0  0
   29.1448    6.7996   17.5597 N   0  0  0  0  0  0  0  0  0  0  0  0
   27.5635   10.3687   11.2254 O   0  0  0  0  0  0  0  0  0  0  0  0
   28.2227   11.3483   12.0323 C   0  0  2  0  0  0  0  0  0  0  0  0
   24.8415    9.9113   13.6986 N   0  0  0  0  0  0  0  0  0  0  0  0
   28.7242   12.7143   10.1242 O   0  0  0  0  0  0  0  0  0  0  0  0
   29.3313   12.0291   11.2260 C   0  0  1  0  0  0  0  0  0  0  0  0
   27.6630   10.2291   14.1216 O   0  0  0  0  0  0  0  0  0  0  0  0
   30.0952   13.0317   12.0940 C   0  0  1  0  0  0  0  0  0  0  0  0
   27.9419    7.9044   14.2213 O   0  0  0  0  0  0  0  0  0  0  0  0
   30.6840   12.3378   13.3270 C   0  0  0  0  0  0  0  0  0  0  0  0
   26.5624    7.6755   17.6456 O   0  0  0  0  0  0  0  0  0  0  0  0
   29.5511   11.7057   14.1405 C   0  0  1  0  0  0  0  0  0  0  0  0
   24.3092    8.5793   16.1839 O   0  0  0  0  0  0  0  0  0  0  0  0
   28.7564   10.6922   13.3117 C   0  0  2  0  0  0  0  0  0  0  0  0
   27.1255    8.9660   13.6932 C   0  0  1  0  0  0  0  0  0  0  0  0
   27.9580    7.8368   15.6614 C   0  0  2  0  0  0  0  0  0  0  0  0
   28.8179    6.6619   16.1326 C   0  0  0  0  0  0  0  0  0  0  0  0
   26.5426    7.6508   16.2150 C   0  0  2  0  0  0  0  0  0  0  0  0
   25.6446    8.7857   15.7197 C   0  0  1  0  0  0  0  0  0  0  0  0
   25.6827    8.8114   14.1894 C   0  0  1  0  0  0  0  0  0  0  0  0
  5  4  1  6  0  0  0
  5  8  1  0  0  0  0
  5 16  1  0  0  0  0
  8  7  1  6  0  0  0
  8 10  1  0  0  0  0
 10  1  1  6  0  0  0
 10 12  1  0  0  0  0
 11 18  1  0  0  0  0
 12 14  1  0  0  0  0
 14  2  1  1  0  0  0
 14 16  1  0  0  0  0
 16  9  1  1  0  0  0
 17  9  1  1  0  0  0
 17 11  1  0  0  0  0
 17 22  1  0  0  0  0
 18 19  1  6  0  0  0
 18 20  1  0  0  0  0
 19  3  1  0  0  0  0
 20 13  1  1  0  0  0
 20 21  1  0  0  0  0
 21 15  1  6  0  0  0
 21 22  1  0  0  0  0
 22  6  1  1  0  0  0
M  END
>  <CHROM.1>
80.64584136,82.21009201,164.33101325,27.99008502,9.92273571,14.05516102,-1.13341451
0.26062589,2.24885691

>  <Name>
2fcx_lig

>  <RI>
0

>  <Rbt.Current_Directory>
/home/itssahil/PROJECTS/Mol_Feturizer/New_Systems/rnas/2fcx

>  <Rbt.Executable>
rbdock ($Id: //depot/dev/client3/rdock/2013.1/src/exe/rbdock.cxx#4 $)

>  <Rbt.Library>
libRbt.so (2013.1, Build901 2013/11/27)

>  <Rbt.Parameter_File>
/export/apps/rDock/src/rDock_2013.1_src/data/scripts/dock_solv.prm

>  <Rbt.Receptor>
prm/pocket_docking_2.prm

>  <SCORE>
-14.7986

>  <SCORE.INTER>
-15.2686

>  <SCORE.INTER.CONST>
1

>  <SCORE.INTER.POLAR>
-1.423

>  <SCORE.INTER.ROT>
3

>  <SCORE.INTER.SOLV>
11.8341

>  <SCORE.INTER.VDW>
-14.9804

>  <SCORE.INTER.norm>
-0.694027

>  <SCORE.INTRA>
0.470017

>  <SCORE.INTRA.DIHEDRAL>
0.0450852

>  <SCORE.INTRA.DIHEDRAL.0>
4.88619

>  <SCORE.INTRA.POLAR>
0

>  <SCORE.INTRA.POLAR.0>
0

>  <SCORE.INTRA.REPUL>
0

>  <SCORE.INTRA.REPUL.0>
0

>  <SCORE.INTRA.SOLV>
1.06934

>  <SCORE.INTRA.SOLV.lig_0>
-73.8187

>  <SCORE.INTRA.VDW>
-0.0871953

>  <SCORE.INTRA.VDW.0>
-1.32335

>  <SCORE.INTRA.norm>
0.0213644

>  <SCORE.RESTR>
0

>  <SCORE.RESTR.CAVITY>
0

>  <SCORE.RESTR.norm>
0

>  <SCORE.SYSTEM>
0

>  <SCORE.SYSTEM.CONST>
0

>  <SCORE.SYSTEM.DIHEDRAL>
0

>  <SCORE.SYSTEM.SOLV>
0

>  <SCORE.SYSTEM.norm>
0

>  <SCORE.heavy>
22

>  <SCORE.norm>
-0.672663

>  <RMSD>
1.197

$$$$
2fcx_lig
 OpenBabel11021811433D
libRbt.so/2013.1/901 2013/11/27
 22 23  0  0  0  0  0  0  0  0999 V2000
   31.1681   13.6105   11.2698 N   0  0  0  0  0  0  0  0  0  0  0  0
   30.0596   11.0900   15.3309 N   0  0  0  0  0  0  0  0  0  0  0  0
   29.1475    6.7988   17.5696 N   0  0  0  0  0  0  0  0  0  0  0  0
   27.5825   10.3000   11.2175 O   0  0  0  0  0  0  0  0  0  0  0  0
   28.2219   11.3061   12.0077 C   0  0  2  0  0  0  0  0  0  0  0  0
   24.8260    9.8884   13.7293 N   0  0  0  0  0  0  0  0  0  0  0  0
   28.7314   12.6305   10.0727 O   0  0  0  0  0  0  0  0  0  0  0  0
   29.3326   11.9789   11.1978 C   0  0  1  0  0  0  0  0  0  0  0  0
   27.6495   10.2321   14.1172 O   0  0  0  0  0  0  0  0  0  0  0  0
   30.0757   13.0106   12.0497 C   0  0  1  0  0  0  0  0  0  0  0  0
   27.9493    7.9104   14.2253 O   0  0  0  0  0  0  0  0  0  0  0  0
   30.6572   12.3533   13.3059 C   0  0  0  0  0  0  0  0  0  0  0  0
   26.6123    7.6875   17.6668 O   0  0  0  0  0  0  0  0  0  0  0  0
   29.5216   11.7290   14.1216 C   0  0  1  0  0  0  0  0  0  0  0  0
   24.3344    8.5647   16.2274 O   0  0  0  0  0  0  0  0  0  0  0  0
   28.7474   10.6871   13.3088 C   0  0  2  0  0  0  0  0  0  0  0  0
   27.1177    8.9623   13.7015 C   0  0  1  0  0  0  0  0  0  0  0  0
   27.9829    7.8502   15.6655 C   0  0  2  0  0  0  0  0  0  0  0  0
   28.8582    6.6851   16.1323 C   0  0  0  0  0  0  0  0  0  0  0  0
   26.5758    7.6552   16.2367 C   0  0  2  0  0  0  0  0  0  0  0  0
   25.6625    8.7799   15.7464 C   0  0  1  0  0  0  0  0  0  0  0  0
   25.6823    8.7982   14.2157 C   0  0  1  0  0  0  0  0  0  0  0  0
  5  4  1  6  0  0  0
  5  8  1  0  0  0  0
  5 16  1  0  0  0  0
  8  7  1  6  0  0  0
  8 10  1  0  0  0  0
 10  1  1  6  0  0  0
 10 12  1  0  0  0  0
 11 18  1  0  0  0  0
 12 14  1  0  0  0  0
 14  2  1  1  0  0  0
 14 16  1  0  0  0  0
 16  9  1  1  0  0  0
 17  9  1  1  0  0  0
 17 11  1  0  0  0  0
 17 22  1  0  0  0  0
 18 19  1  6  0  0  0
 18 20  1  0  0  0  0
 19  3  1  0  0  0  0
 20 13  1  1  0  0  0
 20 21  1  0  0  0  0
 21 15  1  6  0  0  0
 21 22  1  0  0  0  0
 22  6  1  1  0  0  0
M  END
>  <CHROM.1>
79.78620557,80.99611894,167.03664639,27.99304308,9.91302554,14.05301687,-1.13694030
0.26498966,2.23788008

>  <Name>
2fcx_lig

>  <RI>
1.21945e+07

>  <Rbt.Current_Directory>
/home/itssahil/PROJECTS/Mol_Feturizer/New_Systems/rnas/2fcx

>  <Rbt.Executable>
rbdock ($Id: //depot/dev/client3/rdock/2013.1/src/exe/rbdock.cxx#4 $)

>  <Rbt.Library>
libRbt.so (2013.1, Build901 2013/11/27)

>  <Rbt.Parameter_File>
/export/apps/rDock/src/rDock_2013.1_src/data/scripts/dock_solv.prm

>  <Rbt.Receptor>
prm/pocket_docking_3.prm

>  <SCORE>
-14.8732

>  <SCORE.INTER>
-15.1415

>  <SCORE.INTER.CONST>
1

>  <SCORE.INTER.POLAR>
-1.3938

>  <SCORE.INTER.ROT>
3

>  <SCORE.INTER.SOLV>
11.8594

>  <SCORE.INTER.VDW>
-15.0015

>  <SCORE.INTER.norm>
-0.688249

>  <SCORE.INTRA>
0.268299

>  <SCORE.INTRA.DIHEDRAL>
-0.558098

>  <SCORE.INTRA.DIHEDRAL.0>
4.88619

>  <SCORE.INTRA.POLAR>
0

>  <SCORE.INTRA.POLAR.0>
0

>  <SCORE.INTRA.REPUL>
0

>  <SCORE.INTRA.REPUL.0>
0

>  <SCORE.INTRA.SOLV>
1.06065

>  <SCORE.INTRA.SOLV.lig_0>
-73.8187

>  <SCORE.INTRA.VDW>
0.0170237

>  <SCORE.INTRA.VDW.0>
-1.32335

>  <SCORE.INTRA.norm>
0.0121954

>  <SCORE.RESTR>
0

>  <SCORE.RESTR.CAVITY>
0

>  <SCORE.RESTR.norm>
0

>  <SCORE.SYSTEM>
0

>  <SCORE.SYSTEM.CONST>
0

>  <SCORE.SYSTEM.DIHEDRAL>
0

>  <SCORE.SYSTEM.SOLV>
0

>  <SCORE.SYSTEM.norm>
0

>  <SCORE.heavy>
22

>  <SCORE.norm>
-0.676053

>  <RMSD>
1.197

$$$$
2fcx_lig
 OpenBabel11021811433D
libRbt.so/2013.1/901 2013/11/27
 22 23  0  0  0  0  0  0  0  0999 V2000
   31.1709   13.6325   11.3555 N   0  0  0  0  0  0  0  0  0  0  0  0
   29.9653   11.0485   15.3485 N   0  0  0  0  0  0  0  0  0  0  0  0
   29.0191    5.7127   15.8249 N   0  0  0  0  0  0  0  0  0  0  0  0
   27.5798   10.3328   11.1679 O   0  0  0  0  0  0  0  0  0  0  0  0
   28.2035   11.3240   11.9888 C   0  0  2  0  0  0  0  0  0  0  0  0
   24.8204    9.4834   13.7832 N   0  0  0  0  0  0  0  0  0  0  0  0
   28.7596   12.6787   10.0878 O   0  0  0  0  0  0  0  0  0  0  0  0
   29.3338   12.0071   11.2153 C   0  0  1  0  0  0  0  0  0  0  0  0
   27.5812   10.2171   14.0669 O   0  0  0  0  0  0  0  0  0  0  0  0
   30.0598   13.0227   12.1006 C   0  0  1  0  0  0  0  0  0  0  0  0
   28.1782    7.9727   14.3799 O   0  0  0  0  0  0  0  0  0  0  0  0
   30.6113   12.3434   13.3586 C   0  0  0  0  0  0  0  0  0  0  0  0
   26.9263    7.9074   17.8599 O   0  0  0  0  0  0  0  0  0  0  0  0
   29.4561   11.7088   14.1381 C   0  0  1  0  0  0  0  0  0  0  0  0
   24.5358    8.3494   16.4037 O   0  0  0  0  0  0  0  0  0  0  0  0
   28.6981   10.6824   13.2910 C   0  0  2  0  0  0  0  0  0  0  0  0
   27.2115    8.8567   13.7829 C   0  0  1  0  0  0  0  0  0  0  0  0
   28.2382    8.0532   15.8183 C   0  0  2  0  0  0  0  0  0  0  0  0
   29.2621    7.0576   16.3679 C   0  0  0  0  0  0  0  0  0  0  0  0
   26.8755    7.7362   16.4401 C   0  0  2  0  0  0  0  0  0  0  0  0
   25.8188    8.6849   15.8718 C   0  0  1  0  0  0  0  0  0  0  0  0
   25.8160    8.5612   14.3458 C   0  0  1  0  0  0  0  0  0  0  0  0
  5  4  1  6  0  0  0
  5  8  1  0  0  0  0
  5 16  1  0  0  0  0
  8  7  1  6  0  0  0
  8 10  1  0  0  0  0
 10  1  1  6  0  0  0
 10 12  1  0  0  0  0
 11 18  1  0  0  0  0
 12 14  1  0  0  0  0
 14  2  1  1  0  0  0
 14 16  1  0  0  0  0
 16  9  1  1  0  0  0
 17  9  1  1  0  0  0
 17 11  1  0  0  0  0
 17 22  1  0  0  0  0
 18 19  1  1  0  0  0
 18 20  1  0  0  0  0
 19  3  1  0  0  0  0
 20 13  1  1  0  0  0
 20 21  1  0  0  0  0
 21 15  1  1  0  0  0
 21 22  1  0  0  0  0
 22  6  1  6  0  0  0
M  END
>  <CHROM.1>
90.53960918,74.64471908,-51.20428836,28.06841669,9.86303626,14.04812436,-1.15631407
0.24376224,2.27718085

>  <Name>
2fcx_lig

>  <RI>
1.55453e+07

>  <Rbt.Current_Directory>
/home/itssahil/PROJECTS/Mol_Feturizer/New_Systems/rnas/2fcx

>  <Rbt.Executable>
rbdock ($Id: //depot/dev/client3/rdock/2013.1/src/exe/rbdock.cxx#4 $)

>  <Rbt.Library>
libRbt.so (2013.1, Build901 2013/11/27)

>  <Rbt.Parameter_File>
/export/apps/rDock/src/rDock_2013.1_src/data/scripts/dock_solv.prm

>  <Rbt.Receptor>
prm/pocket_docking_4.prm

>  <SCORE>
-11.8508

>  <SCORE.INTER>
-12.2492

>  <SCORE.INTER.CONST>
1

>  <SCORE.INTER.POLAR>
-1.53698

>  <SCORE.INTER.ROT>
3

>  <SCORE.INTER.SOLV>
18.8668

>  <SCORE.INTER.VDW>
-14.9318

>  <SCORE.INTER.norm>
-0.556783

>  <SCORE.INTRA>
0.398419

>  <SCORE.INTRA.DIHEDRAL>
0.100562

>  <SCORE.INTRA.DIHEDRAL.0>
4.88619

>  <SCORE.INTRA.POLAR>
0

>  <SCORE.INTRA.POLAR.0>
0

>  <SCORE.INTRA.REPUL>
0

>  <SCORE.INTRA.REPUL.0>
0

>  <SCORE.INTRA.SOLV>
1.80014

>  <SCORE.INTRA.SOLV.lig_0>
-73.8187

>  <SCORE.INTRA.VDW>
-0.551934

>  <SCORE.INTRA.VDW.0>
-1.32335

>  <SCORE.INTRA.norm>
0.0181099

>  <SCORE.RESTR>
0

>  <SCORE.RESTR.CAVITY>
0

>  <SCORE.RESTR.norm>
0

>  <SCORE.SYSTEM>
0

>  <SCORE.SYSTEM.CONST>
0

>  <SCORE.SYSTEM.DIHEDRAL>
0

>  <SCORE.SYSTEM.SOLV>
0

>  <SCORE.SYSTEM.norm>
0

>  <SCORE.heavy>
22

>  <SCORE.norm>
-0.538673

>  <RMSD>
1.200

$$$$
2fcx_lig
 OpenBabel11021811433D
libRbt.so/2013.1/901 2013/11/27
 22 23  0  0  0  0  0  0  0  0999 V2000
   31.2232   13.6081   11.3084 N   0  0  0  0  0  0  0  0  0  0  0  0
   30.1187   10.9768   15.2997 N   0  0  0  0  0  0  0  0  0  0  0  0
   29.1339    6.8003   17.5514 N   0  0  0  0  0  0  0  0  0  0  0  0
   27.5434   10.4036   11.2108 O   0  0  0  0  0  0  0  0  0  0  0  0
   28.2262   11.3626   12.0230 C   0  0  2  0  0  0  0  0  0  0  0  0
   24.8377    9.9241   13.6961 N   0  0  0  0  0  0  0  0  0  0  0  0
   28.7373   12.7402   10.1259 O   0  0  0  0  0  0  0  0  0  0  0  0
   29.3405   12.0323   11.2155 C   0  0  1  0  0  0  0  0  0  0  0  0
   27.6626   10.2307   14.1045 O   0  0  0  0  0  0  0  0  0  0  0  0
   30.1287   13.0118   12.0882 C   0  0  1  0  0  0  0  0  0  0  0  0
   27.9315    7.9052   14.2114 O   0  0  0  0  0  0  0  0  0  0  0  0
   30.7144   12.2941   13.3089 C   0  0  0  0  0  0  0  0  0  0  0  0
   26.5673    7.6952   17.6430 O   0  0  0  0  0  0  0  0  0  0  0  0
   29.5768   11.6734   14.1245 C   0  0  1  0  0  0  0  0  0  0  0  0
   24.3112    8.6037   16.1887 O   0  0  0  0  0  0  0  0  0  0  0  0
   28.7578   10.6832   13.2910 C   0  0  2  0  0  0  0  0  0  0  0  0
   27.1174    8.9685   13.6833 C   0  0  1  0  0  0  0  0  0  0  0  0
   27.9541    7.8428   15.6517 C   0  0  2  0  0  0  0  0  0  0  0  0
   28.8109    6.6658   16.1232 C   0  0  0  0  0  0  0  0  0  0  0  0
   26.5406    7.6652   16.2127 C   0  0  2  0  0  0  0  0  0  0  0  0
   25.6454    8.8023   15.7175 C   0  0  1  0  0  0  0  0  0  0  0  0
   25.6763    8.8223   14.1869 C   0  0  1  0  0  0  0  0  0  0  0  0
  5  4  1  6  0  0  0
  5  8  1  0  0  0  0
  5 16  1  0  0  0  0
  8  7  1  6  0  0  0
  8 10  1  0  0  0  0
 10  1  1  6  0  0  0
 10 12  1  0  0  0  0
 11 18  1  0  0  0  0
 12 14  1  0  0  0  0
 14  2  1  1  0  0  0
 14 16  1  0  0  0  0
 16  9  1  1  0  0  0
 17  9  1  1  0  0  0
 17 11  1  0  0  0  0
 17 22  1  0  0  0  0
 18 19  1  6  0  0  0
 18 20  1  0  0  0  0
 19  3  1  0  0  0  0
 20 13  1  1  0  0  0
 20 21  1  0  0  0  0
 21 15  1  6  0  0  0
 21 22  1  0  0  0  0
 22  6  1  1  0  0  0
M  END
>  <CHROM.1>
81.86168689,81.96484137,164.90199892,27.99491769,9.92349630,14.04615264,-1.13115511
0.25003022,2.24949676

>  <Name>
2fcx_lig

>  <RI>
1.55453e+07

>  <Rbt.Current_Directory>
/home/itssahil/PROJECTS/Mol_Feturizer/New_Systems/rnas/2fcx

>  <Rbt.Executable>
rbdock ($Id: //depot/dev/client3/rdock/2013.1/src/exe/rbdock.cxx#4 $)

>  <Rbt.Library>
libRbt.so (2013.1, Build901 2013/11/27)

>  <Rbt.Parameter_File>
/export/apps/rDock/src/rDock_2013.1_src/data/scripts/dock_solv.prm

>  <Rbt.Receptor>
prm/pocket_docking_4.prm

>  <SCORE>
-14.9323

>  <SCORE.INTER>
-15.4566

>  <SCORE.INTER.CONST>
1

>  <SCORE.INTER.POLAR>
-1.4482

>  <SCORE.INTER.ROT>
3

>  <SCORE.INTER.SOLV>
12.0439

>  <SCORE.INTER.VDW>
-15.0917

>  <SCORE.INTER.norm>
-0.702572

>  <SCORE.INTRA>
0.524323

>  <SCORE.INTRA.DIHEDRAL>
0.151301

>  <SCORE.INTRA.DIHEDRAL.0>
4.88619

>  <SCORE.INTRA.POLAR>
0

>  <SCORE.INTRA.POLAR.0>
0

>  <SCORE.INTRA.REPUL>
0

>  <SCORE.INTRA.REPUL.0>
0

>  <SCORE.INTRA.SOLV>
1.14486

>  <SCORE.INTRA.SOLV.lig_0>
-73.8187

>  <SCORE.INTRA.VDW>
-0.123758

>  <SCORE.INTRA.VDW.0>
-1.32335

>  <SCORE.INTRA.norm>
0.0238328

>  <SCORE.RESTR>
0

>  <SCORE.RESTR.CAVITY>
0

>  <SCORE.RESTR.norm>
0

>  <SCORE.SYSTEM>
0

>  <SCORE.SYSTEM.CONST>
0

>  <SCORE.SYSTEM.DIHEDRAL>
0

>  <SCORE.SYSTEM.SOLV>
0

>  <SCORE.SYSTEM.norm>
0

>  <SCORE.heavy>
22

>  <SCORE.norm>
-0.678739

>  <RMSD>
1.205

$$$$
2fcx_lig
 OpenBabel11021811433D
libRbt.so/2013.1/901 2013/11/27
 22 23  0  0  0  0  0  0  0  0999 V2000
   31.2024   13.5922   11.2632 N   0  0  0  0  0  0  0  0  0  0  0  0
   30.0591   11.0964   15.3300 N   0  0  0  0  0  0  0  0  0  0  0  0
   29.1322    6.7986   17.5495 N   0  0  0  0  0  0  0  0  0  0  0  0
   27.6125   10.2864   11.2023 O   0  0  0  0  0  0  0  0  0  0  0  0
   28.2473   11.2961   11.9917 C   0  0  2  0  0  0  0  0  0  0  0  0
   24.8332    9.9161   13.6972 N   0  0  0  0  0  0  0  0  0  0  0  0
   28.7735   12.6088   10.0531 O   0  0  0  0  0  0  0  0  0  0  0  0
   29.3652   11.9627   11.1865 C   0  0  1  0  0  0  0  0  0  0  0  0
   27.6571   10.2350   14.1028 O   0  0  0  0  0  0  0  0  0  0  0  0
   30.1031   12.9982   12.0382 C   0  0  1  0  0  0  0  0  0  0  0  0
   27.9366    7.9106   14.2074 O   0  0  0  0  0  0  0  0  0  0  0  0
   30.6741   12.3473   13.3026 C   0  0  0  0  0  0  0  0  0  0  0  0
   26.5770    7.6915   17.6404 O   0  0  0  0  0  0  0  0  0  0  0  0
   29.5313   11.7293   14.1131 C   0  0  1  0  0  0  0  0  0  0  0  0
   24.3153    8.5912   16.1893 O   0  0  0  0  0  0  0  0  0  0  0  0
   28.7618   10.6839   13.3002 C   0  0  2  0  0  0  0  0  0  0  0  0
   27.1171    8.9707   13.6811 C   0  0  1  0  0  0  0  0  0  0  0  0
   27.9610    7.8470   15.6477 C   0  0  2  0  0  0  0  0  0  0  0  0
   28.8236    6.6734   16.1171 C   0  0  0  0  0  0  0  0  0  0  0  0
   26.5489    7.6626   16.2100 C   0  0  2  0  0  0  0  0  0  0  0  0
   25.6481    8.7962   15.7168 C   0  0  1  0  0  0  0  0  0  0  0  0
   25.6773    8.8176   14.1862 C   0  0  1  0  0  0  0  0  0  0  0  0
  5  4  1  6  0  0  0
  5  8  1  0  0  0  0
  5 16  1  0  0  0  0
  8  7  1  6  0  0  0
  8 10  1  0  0  0  0
 10  1  1  6  0  0  0
 10 12  1  0  0  0  0
 11 18  1  0  0  0  0
 12 14  1  0  0  0  0
 14  2  1  1  0  0  0
 14 16  1  0  0  0  0
 16  9  1  1  0  0  0
 17  9  1  1  0  0  0
 17 11  1  0  0  0  0
 17 22  1  0  0  0  0
 18 19  1  6  0  0  0
 18 20  1  0  0  0  0
 19  3  1  0  0  0  0
 20 13  1  1  0  0  0
 20 21  1  0  0  0  0
 21 15  1  6  0  0  0
 21 22  1  0  0  0  0
 22  6  1  1  0  0  0
M  END
>  <CHROM.1>
79.13194060,81.12213157,165.67435223,27.99577922,9.91312236,14.03514693,-1.12814819
0.26402643,2.23515531

>  <Name>
2fcx_lig

>  <RI>
0

>  <Rbt.Current_Directory>
/home/itssahil/PROJECTS/Mol_Feturizer/New_Systems/rnas/2fcx

>  <Rbt.Executable>
rbdock ($Id: //depot/dev/client3/rdock/2013.1/src/exe/rbdock.cxx#4 $)

>  <Rbt.Library>
libRbt.so (2013.1, Build901 2013/11/27)

>  <Rbt.Parameter_File>
/export/apps/rDock/src/rDock_2013.1_src/data/scripts/dock_solv.prm

>  <Rbt.Receptor>
prm/pocket_docking_2.prm

>  <SCORE>
-14.9243

>  <SCORE.INTER>
-15.1757

>  <SCORE.INTER.CONST>
1

>  <SCORE.INTER.POLAR>
-1.38987

>  <SCORE.INTER.ROT>
3

>  <SCORE.INTER.SOLV>
12.0456

>  <SCORE.INTER.VDW>
-15.0994

>  <SCORE.INTER.norm>
-0.689803

>  <SCORE.INTRA>
0.251361

>  <SCORE.INTRA.DIHEDRAL>
-0.518308

>  <SCORE.INTRA.DIHEDRAL.0>
4.88619

>  <SCORE.INTRA.POLAR>
0

>  <SCORE.INTRA.POLAR.0>
0

>  <SCORE.INTRA.REPUL>
0

>  <SCORE.INTRA.REPUL.0>
0

>  <SCORE.INTRA.SOLV>
0.994086

>  <SCORE.INTRA.SOLV.lig_0>
-73.8187

>  <SCORE.INTRA.VDW>
0.0134724

>  <SCORE.INTRA.VDW.0>
-1.32335

>  <SCORE.INTRA.norm>
0.0114255

>  <SCORE.RESTR>
0

>  <SCORE.RESTR.CAVITY>
0

>  <SCORE.RESTR.norm>
0

>  <SCORE.SYSTEM>
0

>  <SCORE.SYSTEM.CONST>
0

>  <SCORE.SYSTEM.DIHEDRAL>
0

>  <SCORE.SYSTEM.SOLV>
0

>  <SCORE.SYSTEM.norm>
0

>  <SCORE.heavy>
22

>  <SCORE.norm>
-0.678378

>  <RMSD>
1.208

$$$$
2fcx_lig
 OpenBabel11021811433D
libRbt.so/2013.1/901 2013/11/27
 22 23  0  0  0  0  0  0  0  0999 V2000
   31.2026   13.6195   11.2958 N   0  0  0  0  0  0  0  0  0  0  0  0
   30.1195   10.9903   15.2944 N   0  0  0  0  0  0  0  0  0  0  0  0
   29.1275    6.7975   17.5583 N   0  0  0  0  0  0  0  0  0  0  0  0
   27.5380   10.3973   11.2122 O   0  0  0  0  0  0  0  0  0  0  0  0
   28.2180   11.3610   12.0212 C   0  0  2  0  0  0  0  0  0  0  0  0
   24.8401    9.9205   13.6957 N   0  0  0  0  0  0  0  0  0  0  0  0
   28.7183   12.7376   10.1204 O   0  0  0  0  0  0  0  0  0  0  0  0
   29.3273   12.0346   11.2099 C   0  0  1  0  0  0  0  0  0  0  0  0
   27.6643   10.2303   14.1059 O   0  0  0  0  0  0  0  0  0  0  0  0
   30.1127   13.0194   12.0791 C   0  0  1  0  0  0  0  0  0  0  0  0
   27.9357    7.9052   14.2143 O   0  0  0  0  0  0  0  0  0  0  0  0
   30.7046   12.3068   13.2999 C   0  0  0  0  0  0  0  0  0  0  0  0
   26.5693    7.6955   17.6451 O   0  0  0  0  0  0  0  0  0  0  0  0
   29.5717   11.6821   14.1190 C   0  0  1  0  0  0  0  0  0  0  0  0
   24.3133    8.6008   16.1887 O   0  0  0  0  0  0  0  0  0  0  0  0
   28.7556   10.6866   13.2892 C   0  0  2  0  0  0  0  0  0  0  0  0
   27.1208    8.9673   13.6850 C   0  0  1  0  0  0  0  0  0  0  0  0
   27.9573    7.8435   15.6546 C   0  0  2  0  0  0  0  0  0  0  0  0
   28.8151    6.6676   16.1273 C   0  0  0  0  0  0  0  0  0  0  0  0
   26.5436    7.6647   16.2147 C   0  0  2  0  0  0  0  0  0  0  0  0
   25.6476    8.8006   15.7183 C   0  0  1  0  0  0  0  0  0  0  0  0
   25.6795    8.8198   14.1877 C   0  0  1  0  0  0  0  0  0  0  0  0
  5  4  1  6  0  0  0
  5  8  1  0  0  0  0
  5 16  1  0  0  0  0
  8  7  1  6  0  0  0
  8 10  1  0  0  0  0
 10  1  1  6  0  0  0
 10 12  1  0  0  0  0
 11 18  1  0  0  0  0
 12 14  1  0  0  0  0
 14  2  1  1  0  0  0
 14 16  1  0  0  0  0
 16  9  1  1  0  0  0
 17  9  1  1  0  0  0
 17 11  1  0  0  0  0
 17 22  1  0  0  0  0
 18 19  1  6  0  0  0
 18 20  1  0  0  0  0
 19  3  1  0  0  0  0
 20 13  1  1  0  0  0
 20 21  1  0  0  0  0
 21 15  1  6  0  0  0
 21 22  1  0  0  0  0
 22  6  1  1  0  0  0
M  END
>  <CHROM.1>
81.62715811,82.23762577,165.37484709,27.99159845,9.92501359,14.04487783,-1.13414979
0.25181901,2.24934719

>  <Name>
2fcx_lig

>  <RI>
1.21945e+07

>  <Rbt.Current_Directory>
/home/itssahil/PROJECTS/Mol_Feturizer/New_Systems/rnas/2fcx

>  <Rbt.Executable>
rbdock ($Id: //depot/dev/client3/rdock/2013.1/src/exe/rbdock.cxx#4 $)

>  <Rbt.Library>
libRbt.so (2013.1, Build901 2013/11/27)

>  <Rbt.Parameter_File>
/export/apps/rDock/src/rDock_2013.1_src/data/scripts/dock_solv.prm

>  <Rbt.Receptor>
prm/pocket_docking_3.prm

>  <SCORE>
-14.9103

>  <SCORE.INTER>
-15.4355

>  <SCORE.INTER.CONST>
1

>  <SCORE.INTER.POLAR>
-1.45199

>  <SCORE.INTER.ROT>
3

>  <SCORE.INTER.SOLV>
12.0141

>  <SCORE.INTER.VDW>
-15.0551

>  <SCORE.INTER.norm>
-0.701612

>  <SCORE.INTRA>
0.525192

>  <SCORE.INTRA.DIHEDRAL>
0.112283

>  <SCORE.INTRA.DIHEDRAL.0>
4.88619

>  <SCORE.INTRA.POLAR>
0

>  <SCORE.INTRA.POLAR.0>
0

>  <SCORE.INTRA.REPUL>
0

>  <SCORE.INTRA.REPUL.0>
0

>  <SCORE.INTRA.SOLV>
1.14907

>  <SCORE.INTRA.SOLV.lig_0>
-73.8187

>  <SCORE.INTRA.VDW>
-0.105485

>  <SCORE.INTRA.VDW.0>
-1.32335

>  <SCORE.INTRA.norm>
0.0238724

>  <SCORE.RESTR>
0

>  <SCORE.RESTR.CAVITY>
0

>  <SCORE.RESTR.norm>
0

>  <SCORE.SYSTEM>
0

>  <SCORE.SYSTEM.CONST>
0

>  <SCORE.SYSTEM.DIHEDRAL>
0

>  <SCORE.SYSTEM.SOLV>
0

>  <SCORE.SYSTEM.norm>
0

>  <SCORE.heavy>
22

>  <SCORE.norm>
-0.67774

>  <RMSD>
1.208

$$$$
2fcx_lig
 OpenBabel11021811433D
libRbt.so/2013.1/901 2013/11/27
 22 23  0  0  0  0  0  0  0  0999 V2000
   31.1986   13.5889   11.2543 N   0  0  0  0  0  0  0  0  0  0  0  0
   30.0630   11.0967   15.3255 N   0  0  0  0  0  0  0  0  0  0  0  0
   29.1042    6.7748   17.5569 N   0  0  0  0  0  0  0  0  0  0  0  0
   27.6068   10.2851   11.2038 O   0  0  0  0  0  0  0  0  0  0  0  0
   28.2438   11.2950   11.9911 C   0  0  2  0  0  0  0  0  0  0  0  0
   24.8325    9.9173   13.7082 N   0  0  0  0  0  0  0  0  0  0  0  0
   28.7664   12.6059   10.0503 O   0  0  0  0  0  0  0  0  0  0  0  0
   29.3603   11.9604   11.1829 C   0  0  1  0  0  0  0  0  0  0  0  0
   27.6578   10.2357   14.1043 O   0  0  0  0  0  0  0  0  0  0  0  0
   30.1007   12.9961   12.0322 C   0  0  1  0  0  0  0  0  0  0  0  0
   27.9372    7.9113   14.2085 O   0  0  0  0  0  0  0  0  0  0  0  0
   30.6741   12.3458   13.2958 C   0  0  0  0  0  0  0  0  0  0  0  0
   26.5891    7.6933   17.6460 O   0  0  0  0  0  0  0  0  0  0  0  0
   29.5328   11.7290   14.1093 C   0  0  1  0  0  0  0  0  0  0  0  0
   24.3227    8.5930   16.2023 O   0  0  0  0  0  0  0  0  0  0  0  0
   28.7610   10.6834   13.2989 C   0  0  2  0  0  0  0  0  0  0  0  0
   27.1162    8.9714   13.6847 C   0  0  1  0  0  0  0  0  0  0  0  0
   27.9664    7.8481   15.6487 C   0  0  2  0  0  0  0  0  0  0  0  0
   28.8304    6.6745   16.1156 C   0  0  0  0  0  0  0  0  0  0  0  0
   26.5562    7.6641   16.2158 C   0  0  2  0  0  0  0  0  0  0  0  0
   25.6539    8.7977   15.7253 C   0  0  1  0  0  0  0  0  0  0  0  0
   25.6780    8.8187   14.1946 C   0  0  1  0  0  0  0  0  0  0  0  0
  5  4  1  6  0  0  0
  5  8  1  0  0  0  0
  5 16  1  0  0  0  0
  8  7  1  6  0  0  0
  8 10  1  0  0  0  0
 10  1  1  6  0  0  0
 10 12  1  0  0  0  0
 11 18  1  0  0  0  0
 12 14  1  0  0  0  0
 14  2  1  1  0  0  0
 14 16  1  0  0  0  0
 16  9  1  1  0  0  0
 17  9  1  1  0  0  0
 17 11  1  0  0  0  0
 17 22  1  0  0  0  0
 18 19  1  6  0  0  0
 18 20  1  0  0  0  0
 19  3  1  0  0  0  0
 20 13  1  1  0  0  0
 20 21  1  0  0  0  0
 21 15  1  6  0  0  0
 21 22  1  0  0  0  0
 22  6  1  1  0  0  0
M  END
>  <CHROM.1>
79.13094635,81.04964177,167.67095472,27.99554565,9.91199515,14.03651724,-1.13010639
0.26218385,2.23529260

>  <Name>
2fcx_lig

>  <RI>
1.21945e+07

>  <Rbt.Current_Directory>
/home/itssahil/PROJECTS/Mol_Feturizer/New_Systems/rnas/2fcx

>  <Rbt.Executable>
rbdock ($Id: //depot/dev/client3/rdock/2013.1/src/exe/rbdock.cxx#4 $)

>  <Rbt.Library>
libRbt.so (2013.1, Build901 2013/11/27)

>  <Rbt.Parameter_File>
/export/apps/rDock/src/rDock_2013.1_src/data/scripts/dock_solv.prm

>  <Rbt.Receptor>
prm/pocket_docking_3.prm

>  <SCORE>
-14.9023

>  <SCORE.INTER>
-15.1312

>  <SCORE.INTER.CONST>
1

>  <SCORE.INTER.POLAR>
-1.38851

>  <SCORE.INTER.ROT>
3

>  <SCORE.INTER.SOLV>
12.1427

>  <SCORE.INTER.VDW>
-15.1066

>  <SCORE.INTER.norm>
-0.687781

>  <SCORE.INTRA>
0.228862

>  <SCORE.INTRA.DIHEDRAL>
-0.708298

>  <SCORE.INTRA.DIHEDRAL.0>
4.88619

>  <SCORE.INTRA.POLAR>
0

>  <SCORE.INTRA.POLAR.0>
0

>  <SCORE.INTRA.REPUL>
0

>  <SCORE.INTRA.REPUL.0>
0

>  <SCORE.INTRA.SOLV>
1.04023

>  <SCORE.INTRA.SOLV.lig_0>
-73.8187

>  <SCORE.INTRA.VDW>
0.0628946

>  <SCORE.INTRA.VDW.0>
-1.32335

>  <SCORE.INTRA.norm>
0.0104028

>  <SCORE.RESTR>
0

>  <SCORE.RESTR.CAVITY>
0

>  <SCORE.RESTR.norm>
0

>  <SCORE.SYSTEM>
0

>  <SCORE.SYSTEM.CONST>
0

>  <SCORE.SYSTEM.DIHEDRAL>
0

>  <SCORE.SYSTEM.SOLV>
0

>  <SCORE.SYSTEM.norm>
0

>  <SCORE.heavy>
22

>  <SCORE.norm>
-0.677378

>  <RMSD>
1.209

$$$$
2fcx_lig
 OpenBabel11021811433D
libRbt.so/2013.1/901 2013/11/27
 22 23  0  0  0  0  0  0  0  0999 V2000
   31.1145   14.0429   11.5231 N   0  0  0  0  0  0  0  0  0  0  0  0
   30.1185   11.3229   15.4834 N   0  0  0  0  0  0  0  0  0  0  0  0
   29.9784    7.0510   16.5928 N   0  0  0  0  0  0  0  0  0  0  0  0
   27.8856   10.3926   11.2610 O   0  0  0  0  0  0  0  0  0  0  0  0
   28.3909   11.4374   12.0967 C   0  0  2  0  0  0  0  0  0  0  0  0
   25.1878    9.9207   13.1481 N   0  0  0  0  0  0  0  0  0  0  0  0
   28.8344   12.8544   10.2116 O   0  0  0  0  0  0  0  0  0  0  0  0
   29.4569   12.2381   11.3451 C   0  0  1  0  0  0  0  0  0  0  0  0
   27.8532   10.2589   14.1590 O   0  0  0  0  0  0  0  0  0  0  0  0
   30.0604   13.3172   12.2470 C   0  0  1  0  0  0  0  0  0  0  0  0
   28.1034    7.9380   14.3649 O   0  0  0  0  0  0  0  0  0  0  0  0
   30.6591   12.6901   13.5106 C   0  0  0  0  0  0  0  0  0  0  0  0
   26.0220    7.7740   17.4182 O   0  0  0  0  0  0  0  0  0  0  0  0
   29.5632   11.9351   14.2681 C   0  0  1  0  0  0  0  0  0  0  0  0
   24.1347    8.6380   15.4890 O   0  0  0  0  0  0  0  0  0  0  0  0
   28.9283   10.8417   13.4037 C   0  0  2  0  0  0  0  0  0  0  0  0
   27.4196    8.9851   13.6520 C   0  0  1  0  0  0  0  0  0  0  0  0
   27.8104    7.9001   15.7762 C   0  0  2  0  0  0  0  0  0  0  0  0
   28.5490    6.7387   16.4453 C   0  0  0  0  0  0  0  0  0  0  0  0
   26.3093    7.7196   16.0174 C   0  0  2  0  0  0  0  0  0  0  0  0
   25.5387    8.8403   15.3175 C   0  0  1  0  0  0  0  0  0  0  0  0
   25.9039    8.8347   13.8307 C   0  0  1  0  0  0  0  0  0  0  0  0
  5  4  1  6  0  0  0
  5  8  1  0  0  0  0
  5 16  1  0  0  0  0
  8  7  1  6  0  0  0
  8 10  1  0  0  0  0
 10  1  1  6  0  0  0
 10 12  1  0  0  0  0
 11 18  1  0  0  0  0
 12 14  1  0  0  0  0
 14  2  1  1  0  0  0
 14 16  1  0  0  0  0
 16  9  1  1  0  0  0
 17  9  1  1  0  0  0
 17 11  1  0  0  0  0
 17 22  1  0  0  0  0
 18 19  1  6  0  0  0
 18 20  1  0  0  0  0
 19  3  1  0  0  0  0
 20 13  1  1  0  0  0
 20 21  1  0  0  0  0
 21 15  1  6  0  0  0
 21 22  1  0  0  0  0
 22  6  1  6  0  0  0
M  END
>  <CHROM.1>
76.62785089,94.59476163,74.93003031,28.05125546,10.05512459,13.97980000,-1.08441071
0.31469867,2.28527904

>  <Name>
2fcx_lig

>  <RI>
1.21945e+07

>  <Rbt.Current_Directory>
/home/itssahil/PROJECTS/Mol_Feturizer/New_Systems/rnas/2fcx

>  <Rbt.Executable>
rbdock ($Id: //depot/dev/client3/rdock/2013.1/src/exe/rbdock.cxx#4 $)

>  <Rbt.Library>
libRbt.so (2013.1, Build901 2013/11/27)

>  <Rbt.Parameter_File>
/export/apps/rDock/src/rDock_2013.1_src/data/scripts/dock_solv.prm

>  <Rbt.Receptor>
prm/pocket_docking_3.prm

>  <SCORE>
-12.7412

>  <SCORE.INTER>
-13.5124

>  <SCORE.INTER.CONST>
1

>  <SCORE.INTER.POLAR>
-1.4498

>  <SCORE.INTER.ROT>
3

>  <SCORE.INTER.SOLV>
13.0533

>  <SCORE.INTER.VDW>
-14.1267

>  <SCORE.INTER.norm>
-0.614202

>  <SCORE.INTRA>
0.771199

>  <SCORE.INTRA.DIHEDRAL>
1.61582

>  <SCORE.INTRA.DIHEDRAL.0>
4.88619

>  <SCORE.INTRA.POLAR>
0

>  <SCORE.INTRA.POLAR.0>
0

>  <SCORE.INTRA.REPUL>
0

>  <SCORE.INTRA.REPUL.0>
0

>  <SCORE.INTRA.SOLV>
0.160064

>  <SCORE.INTRA.SOLV.lig_0>
-73.8187

>  <SCORE.INTRA.VDW>
-0.116742

>  <SCORE.INTRA.VDW.0>
-1.32335

>  <SCORE.INTRA.norm>
0.0350545

>  <SCORE.RESTR>
0

>  <SCORE.RESTR.CAVITY>
0

>  <SCORE.RESTR.norm>
0

>  <SCORE.SYSTEM>
0

>  <SCORE.SYSTEM.CONST>
0

>  <SCORE.SYSTEM.DIHEDRAL>
0

>  <SCORE.SYSTEM.SOLV>
0

>  <SCORE.SYSTEM.norm>
0

>  <SCORE.heavy>
22

>  <SCORE.norm>
-0.579147

>  <RMSD>
1.229

$$$$
2fcx_lig
 OpenBabel11021811433D
libRbt.so/2013.1/901 2013/11/27
 22 23  0  0  0  0  0  0  0  0999 V2000
   30.9832   13.6394   11.1065 N   0  0  0  0  0  0  0  0  0  0  0  0
   29.9617   11.1706   15.2219 N   0  0  0  0  0  0  0  0  0  0  0  0
   28.9916    5.7225   15.8159 N   0  0  0  0  0  0  0  0  0  0  0  0
   27.5023   10.2186   11.1323 O   0  0  0  0  0  0  0  0  0  0  0  0
   28.1116   11.2603   11.8998 C   0  0  2  0  0  0  0  0  0  0  0  0
   24.8132    9.4968   13.7350 N   0  0  0  0  0  0  0  0  0  0  0  0
   28.5758   12.5594    9.9364 O   0  0  0  0  0  0  0  0  0  0  0  0
   29.1993   11.9504   11.0732 C   0  0  1  0  0  0  0  0  0  0  0  0
   27.5771   10.2131   14.0326 O   0  0  0  0  0  0  0  0  0  0  0  0
   29.9115   13.0222   11.9016 C   0  0  1  0  0  0  0  0  0  0  0  0
   28.1553    7.9675   14.3711 O   0  0  0  0  0  0  0  0  0  0  0  0
   30.5157   12.4096   13.1697 C   0  0  0  0  0  0  0  0  0  0  0  0
   26.8772    7.9442   17.8420 O   0  0  0  0  0  0  0  0  0  0  0  0
   29.4017   11.7673   14.0011 C   0  0  1  0  0  0  0  0  0  0  0  0
   24.5009    8.3896   16.3639 O   0  0  0  0  0  0  0  0  0  0  0  0
   28.6587   10.6852   13.2120 C   0  0  2  0  0  0  0  0  0  0  0  0
   27.1996    8.8529   13.7586 C   0  0  1  0  0  0  0  0  0  0  0  0
   28.2053    8.0612   15.8091 C   0  0  2  0  0  0  0  0  0  0  0  0
   29.2177    7.0634   16.3757 C   0  0  0  0  0  0  0  0  0  0  0  0
   26.8357    7.7599   16.4236 C   0  0  2  0  0  0  0  0  0  0  0  0
   25.7902    8.7108   15.8385 C   0  0  1  0  0  0  0  0  0  0  0  0
   25.7978    8.5728   14.3138 C   0  0  1  0  0  0  0  0  0  0  0  0
  5  4  1  6  0  0  0
  5  8  1  0  0  0  0
  5 16  1  0  0  0  0
  8  7  1  6  0  0  0
  8 10  1  0  0  0  0
 10  1  1  6  0  0  0
 10 12  1  0  0  0  0
 11 18  1  0  0  0  0
 12 14  1  0  0  0  0
 14  2  1  1  0  0  0
 14 16  1  0  0  0  0
 16  9  1  1  0  0  0
 17  9  1  1  0  0  0
 17 11  1  0  0  0  0
 17 22  1  0  0  0  0
 18 19  1  1  0  0  0
 18 20  1  0  0  0  0
 19  3  1  0  0  0  0
 20 13  1  1  0  0  0
 20 21  1  0  0  0  0
 21 15  1  1  0  0  0
 21 22  1  0  0  0  0
 22  6  1  6  0  0  0
M  END
>  <CHROM.1>
87.40328443,77.66885618,-49.68908013,28.00751385,9.86485881,13.97360538,-1.17610879
0.24486220,2.26337223

>  <Name>
2fcx_lig

>  <RI>
1.21945e+07

>  <Rbt.Current_Directory>
/home/itssahil/PROJECTS/Mol_Feturizer/New_Systems/rnas/2fcx

>  <Rbt.Executable>
rbdock ($Id: //depot/dev/client3/rdock/2013.1/src/exe/rbdock.cxx#4 $)

>  <Rbt.Library>
libRbt.so (2013.1, Build901 2013/11/27)

>  <Rbt.Parameter_File>
/export/apps/rDock/src/rDock_2013.1_src/data/scripts/dock_solv.prm

>  <Rbt.Receptor>
prm/pocket_docking_3.prm

>  <SCORE>
-11.8671

>  <SCORE.INTER>
-12.2744

>  <SCORE.INTER.CONST>
1

>  <SCORE.INTER.POLAR>
-1.57093

>  <SCORE.INTER.ROT>
3

>  <SCORE.INTER.SOLV>
19.226

>  <SCORE.INTER.VDW>
-14.9552

>  <SCORE.INTER.norm>
-0.557929

>  <SCORE.INTRA>
0.406929

>  <SCORE.INTRA.DIHEDRAL>
0.0365464

>  <SCORE.INTRA.DIHEDRAL.0>
4.88619

>  <SCORE.INTRA.POLAR>
0

>  <SCORE.INTRA.POLAR.0>
0

>  <SCORE.INTRA.REPUL>
0

>  <SCORE.INTRA.REPUL.0>
0

>  <SCORE.INTRA.SOLV>
1.66379

>  <SCORE.INTRA.SOLV.lig_0>
-73.8187

>  <SCORE.INTRA.VDW>
-0.443238

>  <SCORE.INTRA.VDW.0>
-1.32335

>  <SCORE.INTRA.norm>
0.0184968

>  <SCORE.RESTR>
0.000439174

>  <SCORE.RESTR.CAVITY>
0.000439174

>  <SCORE.RESTR.norm>
1.99624e-05

>  <SCORE.SYSTEM>
0

>  <SCORE.SYSTEM.CONST>
0

>  <SCORE.SYSTEM.DIHEDRAL>
0

>  <SCORE.SYSTEM.SOLV>
0

>  <SCORE.SYSTEM.norm>
0

>  <SCORE.heavy>
22

>  <SCORE.norm>
-0.539412

>  <RMSD>
1.287

$$$$
2fcx_lig
 OpenBabel11021811433D
libRbt.so/2013.1/901 2013/11/27
 22 23  0  0  0  0  0  0  0  0999 V2000
   30.8191   14.2361   11.3368 N   0  0  0  0  0  0  0  0  0  0  0  0
   30.2037   11.4012   15.2940 N   0  0  0  0  0  0  0  0  0  0  0  0
   29.9009    7.0135   16.5521 N   0  0  0  0  0  0  0  0  0  0  0  0
   27.7023   10.4824   11.2223 O   0  0  0  0  0  0  0  0  0  0  0  0
   28.2321   11.5264   12.0437 C   0  0  2  0  0  0  0  0  0  0  0  0
   25.2266   10.0189   13.0608 N   0  0  0  0  0  0  0  0  0  0  0  0
   28.4905   12.9969   10.1652 O   0  0  0  0  0  0  0  0  0  0  0  0
   29.2136   12.3791   11.2363 C   0  0  1  0  0  0  0  0  0  0  0  0
   27.8847   10.2872   14.1113 O   0  0  0  0  0  0  0  0  0  0  0  0
   29.8450   13.4595   12.1175 C   0  0  1  0  0  0  0  0  0  0  0  0
   28.0794    7.9594   14.2991 O   0  0  0  0  0  0  0  0  0  0  0  0
   30.5542   12.8272   13.3199 C   0  0  0  0  0  0  0  0  0  0  0  0
   25.9525    7.8156   17.3219 O   0  0  0  0  0  0  0  0  0  0  0  0
   29.5418   12.0190   14.1363 C   0  0  1  0  0  0  0  0  0  0  0  0
   24.1123    8.7397   15.3752 O   0  0  0  0  0  0  0  0  0  0  0  0
   28.8823   10.9225   13.2945 C   0  0  2  0  0  0  0  0  0  0  0  0
   27.4294    9.0281   13.5866 C   0  0  1  0  0  0  0  0  0  0  0  0
   27.7660    7.9156   15.7058 C   0  0  2  0  0  0  0  0  0  0  0  0
   28.4686    6.7318   16.3742 C   0  0  0  0  0  0  0  0  0  0  0  0
   26.2579    7.7673   15.9248 C   0  0  2  0  0  0  0  0  0  0  0  0
   25.5228    8.9115   15.2248 C   0  0  1  0  0  0  0  0  0  0  0  0
   25.9084    8.9108   13.7432 C   0  0  1  0  0  0  0  0  0  0  0  0
  5  4  1  6  0  0  0
  5  8  1  0  0  0  0
  5 16  1  0  0  0  0
  8  7  1  6  0  0  0
  8 10  1  0  0  0  0
 10  1  1  6  0  0  0
 10 12  1  0  0  0  0
 11 18  1  0  0  0  0
 12 14  1  0  0  0  0
 14  2  1  1  0  0  0
 14 16  1  0  0  0  0
 16  9  1  1  0  0  0
 17  9  1  1  0  0  0
 17 11  1  0  0  0  0
 17 22  1  0  0  0  0
 18 19  1  6  0  0  0
 18 20  1  0  0  0  0
 19  3  1  0  0  0  0
 20 13  1  1  0  0  0
 20 21  1  0  0  0  0
 21 15  1  6  0  0  0
 21 22  1  0  0  0  0
 22  6  1  6  0  0  0
M  END
>  <CHROM.1>
74.91159132,101.02113051,75.29755375,27.96726537,10.13110352,13.88466955
-1.12805998,0.30548139,2.31340745

>  <Name>
2fcx_lig

>  <RI>
3.23342e+07

>  <Rbt.Current_Directory>
/home/itssahil/PROJECTS/Mol_Feturizer/New_Systems/rnas/2fcx

>  <Rbt.Executable>
rbdock ($Id: //depot/dev/client3/rdock/2013.1/src/exe/rbdock.cxx#4 $)

>  <Rbt.Library>
libRbt.so (2013.1, Build901 2013/11/27)

>  <Rbt.Parameter_File>
/export/apps/rDock/src/rDock_2013.1_src/data/scripts/dock_solv.prm

>  <Rbt.Receptor>
prm/pocket_docking_5.prm

>  <SCORE>
-12.8519

>  <SCORE.INTER>
-14.1949

>  <SCORE.INTER.CONST>
1

>  <SCORE.INTER.POLAR>
-1.62208

>  <SCORE.INTER.ROT>
3

>  <SCORE.INTER.SOLV>
12.4946

>  <SCORE.INTER.VDW>
-13.8212

>  <SCORE.INTER.norm>
-0.645223

>  <SCORE.INTRA>
1.34296

>  <SCORE.INTRA.DIHEDRAL>
2.51988

>  <SCORE.INTRA.DIHEDRAL.0>
4.88619

>  <SCORE.INTRA.POLAR>
0

>  <SCORE.INTRA.POLAR.0>
0

>  <SCORE.INTRA.REPUL>
0

>  <SCORE.INTRA.REPUL.0>
0

>  <SCORE.INTRA.SOLV>
0.315184

>  <SCORE.INTRA.SOLV.lig_0>
-73.8187

>  <SCORE.INTRA.VDW>
-0.0745703

>  <SCORE.INTRA.VDW.0>
-1.32335

>  <SCORE.INTRA.norm>
0.0610437

>  <SCORE.RESTR>
0

>  <SCORE.RESTR.CAVITY>
0

>  <SCORE.RESTR.norm>
0

>  <SCORE.SYSTEM>
0

>  <SCORE.SYSTEM.CONST>
0

>  <SCORE.SYSTEM.DIHEDRAL>
0

>  <SCORE.SYSTEM.SOLV>
0

>  <SCORE.SYSTEM.norm>
0

>  <SCORE.heavy>
22

>  <SCORE.norm>
-0.584179

>  <RMSD>
1.375

$$$$
2fcx_lig
 OpenBabel11021811433D
libRbt.so/2013.1/901 2013/11/27
 22 23  0  0  0  0  0  0  0  0999 V2000
   29.2389   13.3905   10.5002 N   0  0  0  0  0  0  0  0  0  0  0  0
   29.6474   12.3781   15.2838 N   0  0  0  0  0  0  0  0  0  0  0  0
   29.5207    6.1115   18.2746 N   0  0  0  0  0  0  0  0  0  0  0  0
   29.0586    8.7727   12.0692 O   0  0  0  0  0  0  0  0  0  0  0  0
   28.6876   10.1189   12.3783 C   0  0  2  0  0  0  0  0  0  0  0  0
   25.9197    9.8102   14.2386 N   0  0  0  0  0  0  0  0  0  0  0  0
   28.3934   10.6660   10.0605 O   0  0  0  0  0  0  0  0  0  0  0  0
   29.1089   11.0513   11.2402 C   0  0  1  0  0  0  0  0  0  0  0  0
   28.7373    9.7438   14.7842 O   0  0  0  0  0  0  0  0  0  0  0  0
   28.7836   12.5069   11.5835 C   0  0  1  0  0  0  0  0  0  0  0  0
   28.6955    7.4027   14.8809 O   0  0  0  0  0  0  0  0  0  0  0  0
   29.4705   12.9185   12.8900 C   0  0  0  0  0  0  0  0  0  0  0  0
   27.1506    7.3605   18.2414 O   0  0  0  0  0  0  0  0  0  0  0  0
   28.9969   12.0011   14.0209 C   0  0  1  0  0  0  0  0  0  0  0  0
   25.1054    8.5610   16.6903 O   0  0  0  0  0  0  0  0  0  0  0  0
   29.3020   10.5303   13.7219 C   0  0  2  0  0  0  0  0  0  0  0  0
   28.0534    8.5651   14.3251 C   0  0  1  0  0  0  0  0  0  0  0  0
   28.6398    7.3328   16.3200 C   0  0  2  0  0  0  0  0  0  0  0  0
   29.3121    6.0523   16.8201 C   0  0  0  0  0  0  0  0  0  0  0  0
   27.1897    7.3393   16.8112 C   0  0  2  0  0  0  0  0  0  0  0  0
   26.4754    8.5854   16.2851 C   0  0  1  0  0  0  0  0  0  0  0  0
   26.5828    8.6065   14.7580 C   0  0  1  0  0  0  0  0  0  0  0  0
  5  4  1  6  0  0  0
  5  8  1  0  0  0  0
  5 16  1  0  0  0  0
  8  7  1  6  0  0  0
  8 10  1  0  0  0  0
 10  1  1  6  0  0  0
 10 12  1  0  0  0  0
 11 18  1  0  0  0  0
 12 14  1  0  0  0  0
 14  2  1  1  0  0  0
 14 16  1  0  0  0  0
 16  9  1  1  0  0  0
 17  9  1  1  0  0  0
 17 11  1  0  0  0  0
 17 22  1  0  0  0  0
 18 19  1  6  0  0  0
 18 20  1  0  0  0  0
 19  3  1  0  0  0  0
 20 13  1  1  0  0  0
 20 21  1  0  0  0  0
 21 15  1  6  0  0  0
 21 22  1  0  0  0  0
 22  6  1  1  0  0  0
M  END
>  <CHROM.1>
16.10419917,119.11447895,167.66046163,28.26290316,9.50227449,14.38221344
1.35565524,0.60302567,-0.73207422

>  <Name>
2fcx_lig

>  <RI>
0

>  <Rbt.Current_Directory>
/home/itssahil/PROJECTS/Mol_Feturizer/New_Systems/rnas/2fcx

>  <Rbt.Executable>
rbdock ($Id: //depot/dev/client3/rdock/2013.1/src/exe/rbdock.cxx#4 $)

>  <Rbt.Library>
libRbt.so (2013.1, Build901 2013/11/27)

>  <Rbt.Parameter_File>
/export/apps/rDock/src/rDock_2013.1_src/data/scripts/dock_solv.prm

>  <Rbt.Receptor>
prm/pocket_docking_2.prm

>  <SCORE>
-3.3708

>  <SCORE.INTER>
-15.4603

>  <SCORE.INTER.CONST>
1

>  <SCORE.INTER.POLAR>
-1.42731

>  <SCORE.INTER.ROT>
3

>  <SCORE.INTER.SOLV>
13.2477

>  <SCORE.INTER.VDW>
-15.5651

>  <SCORE.INTER.norm>
-0.702741

>  <SCORE.INTRA>
11.4996

>  <SCORE.INTRA.DIHEDRAL>
8.84618

>  <SCORE.INTRA.DIHEDRAL.0>
4.88619

>  <SCORE.INTRA.POLAR>
0

>  <SCORE.INTRA.POLAR.0>
0

>  <SCORE.INTRA.REPUL>
0

>  <SCORE.INTRA.REPUL.0>
0

>  <SCORE.INTRA.SOLV>
1.51473

>  <SCORE.INTRA.SOLV.lig_0>
-73.8187

>  <SCORE.INTRA.VDW>
6.31914

>  <SCORE.INTRA.VDW.0>
-1.32335

>  <SCORE.INTRA.norm>
0.522709

>  <SCORE.RESTR>
0.589917

>  <SCORE.RESTR.CAVITY>
0.589917

>  <SCORE.RESTR.norm>
0.0268144

>  <SCORE.SYSTEM>
0

>  <SCORE.SYSTEM.CONST>
0

>  <SCORE.SYSTEM.DIHEDRAL>
0

>  <SCORE.SYSTEM.SOLV>
0

>  <SCORE.SYSTEM.norm>
0

>  <SCORE.heavy>
22

>  <SCORE.norm>
-0.153218

>  <RMSD>
1.390

$$$$
2fcx_lig
 OpenBabel11021811433D
libRbt.so/2013.1/901 2013/11/27
 22 23  0  0  0  0  0  0  0  0999 V2000
   29.0293   13.2882   10.4614 N   0  0  0  0  0  0  0  0  0  0  0  0
   29.6658   12.3468   15.2346 N   0  0  0  0  0  0  0  0  0  0  0  0
   30.4686    6.1658   17.1720 N   0  0  0  0  0  0  0  0  0  0  0  0
   29.0670    8.6859   12.0852 O   0  0  0  0  0  0  0  0  0  0  0  0
   28.6643   10.0228   12.3951 C   0  0  2  0  0  0  0  0  0  0  0  0
   26.0773    9.8311   13.9815 N   0  0  0  0  0  0  0  0  0  0  0  0
   28.2579   10.5323   10.0857 O   0  0  0  0  0  0  0  0  0  0  0  0
   29.0076   10.9549   11.2308 C   0  0  1  0  0  0  0  0  0  0  0  0
   28.8244    9.6782   14.8007 O   0  0  0  0  0  0  0  0  0  0  0  0
   28.6482   12.4030   11.5717 C   0  0  1  0  0  0  0  0  0  0  0  0
   28.6405    7.3606   15.0951 O   0  0  0  0  0  0  0  0  0  0  0  0
   29.3736   12.8525   12.8445 C   0  0  0  0  0  0  0  0  0  0  0  0
   26.7932    7.7011   18.2814 O   0  0  0  0  0  0  0  0  0  0  0  0
   28.9774   11.9336   14.0036 C   0  0  1  0  0  0  0  0  0  0  0  0
   24.9711    8.8525   16.4418 O   0  0  0  0  0  0  0  0  0  0  0  0
   29.3188   10.4702   13.7078 C   0  0  2  0  0  0  0  0  0  0  0  0
   28.1196    8.4970   14.3813 C   0  0  1  0  0  0  0  0  0  0  0  0
   28.4489    7.4254   16.5226 C   0  0  2  0  0  0  0  0  0  0  0  0
   28.9983    6.1650   17.1943 C   0  0  0  0  0  0  0  0  0  0  0  0
   26.9624    7.5473   16.8689 C   0  0  2  0  0  0  0  0  0  0  0  0
   26.3717    8.7732   16.1704 C   0  0  1  0  0  0  0  0  0  0  0  0
   26.6202    8.6493   14.6648 C   0  0  1  0  0  0  0  0  0  0  0  0
  5  4  1  6  0  0  0
  5  8  1  0  0  0  0
  5 16  1  0  0  0  0
  8  7  1  6  0  0  0
  8 10  1  0  0  0  0
 10  1  1  6  0  0  0
 10 12  1  0  0  0  0
 11 18  1  0  0  0  0
 12 14  1  0  0  0  0
 14  2  1  1  0  0  0
 14 16  1  0  0  0  0
 16  9  1  1  0  0  0
 17  9  1  1  0  0  0
 17 11  1  0  0  0  0
 17 22  1  0  0  0  0
 18 19  1  1  0  0  0
 18 20  1  0  0  0  0
 19  3  1  0  0  0  0
 20 13  1  1  0  0  0
 20 21  1  0  0  0  0
 21 15  1  6  0  0  0
 21 22  1  0  0  0  0
 22  6  1  6  0  0  0
M  END
>  <CHROM.1>
13.96803980,130.00845087,71.99882681,28.22677194,9.51906880,14.33803301,1.38338797
0.43992932,-0.79032357

>  <Name>
2fcx_lig

>  <RI>
0

>  <Rbt.Current_Directory>
/home/itssahil/PROJECTS/Mol_Feturizer/New_Systems/rnas/2fcx

>  <Rbt.Executable>
rbdock ($Id: //depot/dev/client3/rdock/2013.1/src/exe/rbdock.cxx#4 $)

>  <Rbt.Library>
libRbt.so (2013.1, Build901 2013/11/27)

>  <Rbt.Parameter_File>
/export/apps/rDock/src/rDock_2013.1_src/data/scripts/dock_solv.prm

>  <Rbt.Receptor>
prm/pocket_docking_2.prm

>  <SCORE>
-2.8703

>  <SCORE.INTER>
-14.4679

>  <SCORE.INTER.CONST>
1

>  <SCORE.INTER.POLAR>
-1.50431

>  <SCORE.INTER.ROT>
3

>  <SCORE.INTER.SOLV>
14.788

>  <SCORE.INTER.VDW>
-15.1603

>  <SCORE.INTER.norm>
-0.657634

>  <SCORE.INTRA>
10.9662

>  <SCORE.INTRA.DIHEDRAL>
8.61187

>  <SCORE.INTRA.DIHEDRAL.0>
4.88619

>  <SCORE.INTRA.POLAR>
0

>  <SCORE.INTRA.POLAR.0>
0

>  <SCORE.INTRA.REPUL>
0

>  <SCORE.INTRA.REPUL.0>
0

>  <SCORE.INTRA.SOLV>
1.23774

>  <SCORE.INTRA.SOLV.lig_0>
-73.8187

>  <SCORE.INTRA.VDW>
6.04134

>  <SCORE.INTRA.VDW.0>
-1.32335

>  <SCORE.INTRA.norm>
0.498461

>  <SCORE.RESTR>
0.631495

>  <SCORE.RESTR.CAVITY>
0.631495

>  <SCORE.RESTR.norm>
0.0287043

>  <SCORE.SYSTEM>
0

>  <SCORE.SYSTEM.CONST>
0

>  <SCORE.SYSTEM.DIHEDRAL>
0

>  <SCORE.SYSTEM.SOLV>
0

>  <SCORE.SYSTEM.norm>
0

>  <SCORE.heavy>
22

>  <SCORE.norm>
-0.130468

>  <RMSD>
1.407

$$$$
2fcx_lig
 OpenBabel11021811433D
libRbt.so/2013.1/901 2013/11/27
 22 23  0  0  0  0  0  0  0  0999 V2000
   29.0518   13.3705   10.4844 N   0  0  0  0  0  0  0  0  0  0  0  0
   29.5875   12.3766   15.2593 N   0  0  0  0  0  0  0  0  0  0  0  0
   29.5293    6.0701   18.2641 N   0  0  0  0  0  0  0  0  0  0  0  0
   29.0648    8.7503   12.0567 O   0  0  0  0  0  0  0  0  0  0  0  0
   28.6525   10.0828   12.3729 C   0  0  2  0  0  0  0  0  0  0  0  0
   25.9385    9.8204   14.2686 N   0  0  0  0  0  0  0  0  0  0  0  0
   28.2948   10.6176   10.0611 O   0  0  0  0  0  0  0  0  0  0  0  0
   29.0187   11.0287   11.2268 C   0  0  1  0  0  0  0  0  0  0  0  0
   28.7616    9.7113   14.7773 O   0  0  0  0  0  0  0  0  0  0  0  0
   28.6489   12.4721   11.5762 C   0  0  1  0  0  0  0  0  0  0  0  0
   28.6850    7.3713   14.8785 O   0  0  0  0  0  0  0  0  0  0  0  0
   29.3457   12.9087   12.8693 C   0  0  0  0  0  0  0  0  0  0  0  0
   27.1840    7.3579   18.2590 O   0  0  0  0  0  0  0  0  0  0  0  0
   28.9267   11.9759   14.0091 C   0  0  1  0  0  0  0  0  0  0  0  0
   25.1373    8.5875   16.7328 O   0  0  0  0  0  0  0  0  0  0  0  0
   29.2777   10.5166   13.7043 C   0  0  2  0  0  0  0  0  0  0  0  0
   28.0537    8.5427   14.3291 C   0  0  1  0  0  0  0  0  0  0  0  0
   28.6472    7.3044   16.3183 C   0  0  2  0  0  0  0  0  0  0  0  0
   29.3063    6.0144   16.8117 C   0  0  0  0  0  0  0  0  0  0  0  0
   27.2039    7.3340   16.8284 C   0  0  2  0  0  0  0  0  0  0  0  0
   26.5020    8.5901   16.3097 C   0  0  1  0  0  0  0  0  0  0  0  0
   26.5897    8.6074   14.7813 C   0  0  1  0  0  0  0  0  0  0  0  0
  5  4  1  6  0  0  0
  5  8  1  0  0  0  0
  5 16  1  0  0  0  0
  8  7  1  6  0  0  0
  8 10  1  0  0  0  0
 10  1  1  6  0  0  0
 10 12  1  0  0  0  0
 11 18  1  0  0  0  0
 12 14  1  0  0  0  0
 14  2  1  1  0  0  0
 14 16  1  0  0  0  0
 16  9  1  1  0  0  0
 17  9  1  1  0  0  0
 17 11  1  0  0  0  0
 17 22  1  0  0  0  0
 18 19  1  6  0  0  0
 18 20  1  0  0  0  0
 19  3  1  0  0  0  0
 20 13  1  1  0  0  0
 20 21  1  0  0  0  0
 21 15  1  6  0  0  0
 21 22  1  0  0  0  0
 22  6  1  1  0  0  0
M  END
>  <CHROM.1>
13.20782395,121.50627974,167.91202920,28.23384562,9.48435299,14.38246871
1.35290808,0.76463107,-0.70602231

>  <Name>
2fcx_lig

>  <RI>
0

>  <Rbt.Current_Directory>
/home/itssahil/PROJECTS/Mol_Feturizer/New_Systems/rnas/2fcx

>  <Rbt.Executable>
rbdock ($Id: //depot/dev/client3/rdock/2013.1/src/exe/rbdock.cxx#4 $)

>  <Rbt.Library>
libRbt.so (2013.1, Build901 2013/11/27)

>  <Rbt.Parameter_File>
/export/apps/rDock/src/rDock_2013.1_src/data/scripts/dock_solv.prm

>  <Rbt.Receptor>
prm/pocket_docking_2.prm

>  <SCORE>
-3.34662

>  <SCORE.INTER>
-15.6919

>  <SCORE.INTER.CONST>
1

>  <SCORE.INTER.POLAR>
-1.50585

>  <SCORE.INTER.ROT>
3

>  <SCORE.INTER.SOLV>
13.1131

>  <SCORE.INTER.VDW>
-15.4128

>  <SCORE.INTER.norm>
-0.713268

>  <SCORE.INTRA>
11.6923

>  <SCORE.INTRA.DIHEDRAL>
9.19666

>  <SCORE.INTRA.DIHEDRAL.0>
4.88619

>  <SCORE.INTRA.POLAR>
0

>  <SCORE.INTRA.POLAR.0>
0

>  <SCORE.INTRA.REPUL>
0

>  <SCORE.INTRA.REPUL.0>
0

>  <SCORE.INTRA.SOLV>
1.63108

>  <SCORE.INTRA.SOLV.lig_0>
-73.8187

>  <SCORE.INTRA.VDW>
6.27839

>  <SCORE.INTRA.VDW.0>
-1.32335

>  <SCORE.INTRA.norm>
0.531466

>  <SCORE.RESTR>
0.653028

>  <SCORE.RESTR.CAVITY>
0.653028

>  <SCORE.RESTR.norm>
0.0296831

>  <SCORE.SYSTEM>
0

>  <SCORE.SYSTEM.CONST>
0

>  <SCORE.SYSTEM.DIHEDRAL>
0

>  <SCORE.SYSTEM.SOLV>
0

>  <SCORE.SYSTEM.norm>
0

>  <SCORE.heavy>
22

>  <SCORE.norm>
-0.152119

>  <RMSD>
1.441

$$$$
2fcx_lig
 OpenBabel11021811433D
libRbt.so/2013.1/901 2013/11/27
 22 23  0  0  0  0  0  0  0  0999 V2000
   28.9993   13.5769   10.4866 N   0  0  0  0  0  0  0  0  0  0  0  0
   29.7463   12.4964   15.2141 N   0  0  0  0  0  0  0  0  0  0  0  0
   29.3061    5.2347   16.5561 N   0  0  0  0  0  0  0  0  0  0  0  0
   28.6285    8.9696   12.0531 O   0  0  0  0  0  0  0  0  0  0  0  0
   28.3818   10.3358   12.3968 C   0  0  2  0  0  0  0  0  0  0  0  0
   25.8276    9.5287   14.2231 N   0  0  0  0  0  0  0  0  0  0  0  0
   27.9282   10.9225   10.1147 O   0  0  0  0  0  0  0  0  0  0  0  0
   28.7683   11.2462   11.2289 C   0  0  1  0  0  0  0  0  0  0  0  0
   28.6123    9.9371   14.7883 O   0  0  0  0  0  0  0  0  0  0  0  0
   28.5777   12.7180   11.6029 C   0  0  1  0  0  0  0  0  0  0  0  0
   28.9273    7.6311   15.0623 O   0  0  0  0  0  0  0  0  0  0  0  0
   29.4022   13.0689   12.8461 C   0  0  0  0  0  0  0  0  0  0  0  0
   27.3489    7.6012   18.4074 O   0  0  0  0  0  0  0  0  0  0  0  0
   28.9643   12.1772   14.0113 C   0  0  1  0  0  0  0  0  0  0  0  0
   25.1714    8.3545   16.7578 O   0  0  0  0  0  0  0  0  0  0  0  0
   29.1374   10.6913   13.6831 C   0  0  2  0  0  0  0  0  0  0  0  0
   28.1248    8.6365   14.4161 C   0  0  1  0  0  0  0  0  0  0  0  0
   28.8580    7.6604   16.5022 C   0  0  2  0  0  0  0  0  0  0  0  0
   29.7094    6.5392   17.1020 C   0  0  0  0  0  0  0  0  0  0  0  0
   27.4156    7.4802   16.9831 C   0  0  2  0  0  0  0  0  0  0  0  0
   26.5284    8.5591   16.3598 C   0  0  1  0  0  0  0  0  0  0  0  0
   26.6578    8.4832   14.8362 C   0  0  1  0  0  0  0  0  0  0  0  0
  5  4  1  6  0  0  0
  5  8  1  0  0  0  0
  5 16  1  0  0  0  0
  8  7  1  6  0  0  0
  8 10  1  0  0  0  0
 10  1  1  6  0  0  0
 10 12  1  0  0  0  0
 11 18  1  0  0  0  0
 12 14  1  0  0  0  0
 14  2  1  1  0  0  0
 14 16  1  0  0  0  0
 16  9  1  1  0  0  0
 17  9  1  1  0  0  0
 17 11  1  0  0  0  0
 17 22  1  0  0  0  0
 18 19  1  1  0  0  0
 18 20  1  0  0  0  0
 19  3  1  0  0  0  0
 20 13  1  1  0  0  0
 20 21  1  0  0  0  0
 21 15  1  6  0  0  0
 21 22  1  0  0  0  0
 22  6  1  6  0  0  0
M  END
>  <CHROM.1>
31.91491088,115.82735729,-55.34781222,28.21350886,9.59609668,14.35868460
1.23985093,1.14878364,-0.51186545

>  <Name>
2fcx_lig

>  <RI>
0

>  <Rbt.Current_Directory>
/home/itssahil/PROJECTS/Mol_Feturizer/New_Systems/rnas/2fcx

>  <Rbt.Executable>
rbdock ($Id: //depot/dev/client3/rdock/2013.1/src/exe/rbdock.cxx#4 $)

>  <Rbt.Library>
libRbt.so (2013.1, Build901 2013/11/27)

>  <Rbt.Parameter_File>
/export/apps/rDock/src/rDock_2013.1_src/data/scripts/dock_solv.prm

>  <Rbt.Receptor>
prm/pocket_docking_2.prm

>  <SCORE>
-1.69279

>  <SCORE.INTER>
-11.3305

>  <SCORE.INTER.CONST>
1

>  <SCORE.INTER.POLAR>
-1.4133

>  <SCORE.INTER.ROT>
3

>  <SCORE.INTER.SOLV>
17.6429

>  <SCORE.INTER.VDW>
-14.3236

>  <SCORE.INTER.norm>
-0.515023

>  <SCORE.INTRA>
9.03416

>  <SCORE.INTRA.DIHEDRAL>
5.54852

>  <SCORE.INTRA.DIHEDRAL.0>
4.88619

>  <SCORE.INTRA.POLAR>
0

>  <SCORE.INTRA.POLAR.0>
0

>  <SCORE.INTRA.REPUL>
0

>  <SCORE.INTRA.REPUL.0>
0

>  <SCORE.INTRA.SOLV>
1.88673

>  <SCORE.INTRA.SOLV.lig_0>
-73.8187

>  <SCORE.INTRA.VDW>
5.31654

>  <SCORE.INTRA.VDW.0>
-1.32335

>  <SCORE.INTRA.norm>
0.410644

>  <SCORE.RESTR>
0.603552

>  <SCORE.RESTR.CAVITY>
0.603552

>  <SCORE.RESTR.norm>
0.0274342

>  <SCORE.SYSTEM>
0

>  <SCORE.SYSTEM.CONST>
0

>  <SCORE.SYSTEM.DIHEDRAL>
0

>  <SCORE.SYSTEM.SOLV>
0

>  <SCORE.SYSTEM.norm>
0

>  <SCORE.heavy>
22

>  <SCORE.norm>
-0.0769449

>  <RMSD>
1.459

$$$$
2fcx_lig
 OpenBabel11021811433D
libRbt.so/2013.1/901 2013/11/27
 22 23  0  0  0  0  0  0  0  0999 V2000
   30.6268   12.0723   11.3996 N   0  0  0  0  0  0  0  0  0  0  0  0
   30.5093   10.6300   16.0879 N   0  0  0  0  0  0  0  0  0  0  0  0
   31.0374    5.7907   18.0922 N   0  0  0  0  0  0  0  0  0  0  0  0
   27.7611    8.3671   12.7703 O   0  0  0  0  0  0  0  0  0  0  0  0
   28.2848    9.6376   13.1667 C   0  0  2  0  0  0  0  0  0  0  0  0
   25.4333    8.6870   16.2528 N   0  0  0  0  0  0  0  0  0  0  0  0
   28.2989   10.4391   10.9049 O   0  0  0  0  0  0  0  0  0  0  0  0
   29.1424   10.2230   12.0423 C   0  0  1  0  0  0  0  0  0  0  0  0
   28.1820    9.1122   15.5425 O   0  0  0  0  0  0  0  0  0  0  0  0
   29.7694   11.5506   12.4741 C   0  0  1  0  0  0  0  0  0  0  0  0
   28.5648    6.8004   15.5127 O   0  0  0  0  0  0  0  0  0  0  0  0
   30.6104   11.3622   13.7412 C   0  0  0  0  0  0  0  0  0  0  0  0
   28.6408    6.5542   19.2025 O   0  0  0  0  0  0  0  0  0  0  0  0
   29.7198   10.8207   14.8630 C   0  0  1  0  0  0  0  0  0  0  0  0
   25.9636    7.3604   18.7414 O   0  0  0  0  0  0  0  0  0  0  0  0
   29.0690    9.4894   14.4762 C   0  0  2  0  0  0  0  0  0  0  0  0
   27.5678    7.8262   15.3510 C   0  0  1  0  0  0  0  0  0  0  0  0
   29.1442    6.7473   16.8320 C   0  0  2  0  0  0  0  0  0  0  0  0
   30.1633    5.6094   16.9237 C   0  0  0  0  0  0  0  0  0  0  0  0
   28.0652    6.5148   17.8931 C   0  0  2  0  0  0  0  0  0  0  0  0
   27.0032    7.6112   17.7938 C   0  0  1  0  0  0  0  0  0  0  0  0
   26.4400    7.6235   16.3702 C   0  0  1  0  0  0  0  0  0  0  0  0
  5  4  1  6  0  0  0
  5  8  1  0  0  0  0
  5 16  1  0  0  0  0
  8  7  1  6  0  0  0
  8 10  1  0  0  0  0
 10  1  1  6  0  0  0
 10 12  1  0  0  0  0
 11 18  1  0  0  0  0
 12 14  1  0  0  0  0
 14  2  1  1  0  0  0
 14 16  1  0  0  0  0
 16  9  1  1  0  0  0
 17  9  1  1  0  0  0
 17 11  1  0  0  0  0
 17 22  1  0  0  0  0
 18 19  1  6  0  0  0
 18 20  1  0  0  0  0
 19  3  1  0  0  0  0
 20 13  1  1  0  0  0
 20 21  1  0  0  0  0
 21 15  1  1  0  0  0
 21 22  1  0  0  0  0
 22  6  1  1  0  0  0
M  END
>  <CHROM.1>
63.60470982,70.62210974,162.93484955,28.61503140,8.64796879,15.30365914,-1.37663171
0.09171098,2.19873747

>  <Name>
2fcx_lig

>  <RI>
0

>  <Rbt.Current_Directory>
/home/itssahil/PROJECTS/Mol_Feturizer/New_Systems/rnas/2fcx

>  <Rbt.Executable>
rbdock ($Id: //depot/dev/client3/rdock/2013.1/src/exe/rbdock.cxx#4 $)

>  <Rbt.Library>
libRbt.so (2013.1, Build901 2013/11/27)

>  <Rbt.Parameter_File>
/export/apps/rDock/src/rDock_2013.1_src/data/scripts/dock_solv.prm

>  <Rbt.Receptor>
prm/pocket_docking_2.prm

>  <SCORE>
-9.07724

>  <SCORE.INTER>
-9.06397

>  <SCORE.INTER.CONST>
1

>  <SCORE.INTER.POLAR>
-1.15886

>  <SCORE.INTER.ROT>
3

>  <SCORE.INTER.SOLV>
20.8494

>  <SCORE.INTER.VDW>
-14.7296

>  <SCORE.INTER.norm>
-0.411999

>  <SCORE.INTRA>
-0.501395

>  <SCORE.INTRA.DIHEDRAL>
-3.27995

>  <SCORE.INTRA.DIHEDRAL.0>
4.88619

>  <SCORE.INTRA.POLAR>
0

>  <SCORE.INTRA.POLAR.0>
0

>  <SCORE.INTRA.REPUL>
0

>  <SCORE.INTRA.REPUL.0>
0

>  <SCORE.INTRA.SOLV>
0.0464261

>  <SCORE.INTRA.SOLV.lig_0>
-73.8187

>  <SCORE.INTRA.VDW>
1.11537

>  <SCORE.INTRA.VDW.0>
-1.32335

>  <SCORE.INTRA.norm>
-0.0227907

>  <SCORE.RESTR>
0.488128

>  <SCORE.RESTR.CAVITY>
0.488128

>  <SCORE.RESTR.norm>
0.0221876

>  <SCORE.SYSTEM>
0

>  <SCORE.SYSTEM.CONST>
0

>  <SCORE.SYSTEM.DIHEDRAL>
0

>  <SCORE.SYSTEM.SOLV>
0

>  <SCORE.SYSTEM.norm>
0

>  <SCORE.heavy>
22

>  <SCORE.norm>
-0.412602

>  <RMSD>
1.530

$$$$
2fcx_lig
 OpenBabel11021811433D
libRbt.so/2013.1/901 2013/11/27
 22 23  0  0  0  0  0  0  0  0999 V2000
   28.9162   13.0703   10.3770 N   0  0  0  0  0  0  0  0  0  0  0  0
   28.9350   12.4334   15.2421 N   0  0  0  0  0  0  0  0  0  0  0  0
   29.5988    6.1444   18.3778 N   0  0  0  0  0  0  0  0  0  0  0  0
   29.2625    8.5884   12.2774 O   0  0  0  0  0  0  0  0  0  0  0  0
   28.6597    9.8751   12.4409 C   0  0  2  0  0  0  0  0  0  0  0  0
   25.6871    9.4681   14.3016 N   0  0  0  0  0  0  0  0  0  0  0  0
   28.5475   10.2242   10.0695 O   0  0  0  0  0  0  0  0  0  0  0  0
   29.0598   10.7905   11.2814 C   0  0  1  0  0  0  0  0  0  0  0  0
   28.4959    9.6621   14.8614 O   0  0  0  0  0  0  0  0  0  0  0  0
   28.4815   12.1942   11.4748 C   0  0  1  0  0  0  0  0  0  0  0  0
   28.6670    7.3276   14.9736 O   0  0  0  0  0  0  0  0  0  0  0  0
   28.9475   12.7898   12.8076 C   0  0  0  0  0  0  0  0  0  0  0  0
   27.1138    7.1656   18.3266 O   0  0  0  0  0  0  0  0  0  0  0  0
   28.4947   11.8805   13.9534 C   0  0  1  0  0  0  0  0  0  0  0  0
   24.9763    8.1651   16.7574 O   0  0  0  0  0  0  0  0  0  0  0  0
   29.0504   10.4612   13.8031 C   0  0  2  0  0  0  0  0  0  0  0  0
   27.9248    8.4232   14.4068 C   0  0  1  0  0  0  0  0  0  0  0  0
   28.6100    7.2618   16.4128 C   0  0  2  0  0  0  0  0  0  0  0  0
   29.3933    6.0510   16.9247 C   0  0  0  0  0  0  0  0  0  0  0  0
   27.1625    7.1392   16.8967 C   0  0  2  0  0  0  0  0  0  0  0  0
   26.3406    8.3117   16.3589 C   0  0  1  0  0  0  0  0  0  0  0  0
   26.4542    8.3331   14.8322 C   0  0  1  0  0  0  0  0  0  0  0  0
  5  4  1  6  0  0  0
  5  8  1  0  0  0  0
  5 16  1  0  0  0  0
  8  7  1  6  0  0  0
  8 10  1  0  0  0  0
 10  1  1  6  0  0  0
 10 12  1  0  0  0  0
 11 18  1  0  0  0  0
 12 14  1  0  0  0  0
 14  2  1  1  0  0  0
 14 16  1  0  0  0  0
 16  9  1  1  0  0  0
 17  9  1  1  0  0  0
 17 11  1  0  0  0  0
 17 22  1  0  0  0  0
 18 19  1  6  0  0  0
 18 20  1  0  0  0  0
 19  3  1  0  0  0  0
 20 13  1  1  0  0  0
 20 21  1  0  0  0  0
 21 15  1  6  0  0  0
 21 22  1  0  0  0  0
 22  6  1  1  0  0  0
M  END
>  <CHROM.1>
9.83327625,116.28429427,167.11467843,28.11883173,9.31709901,14.42859072,1.36935448
0.69610744,-0.74811472

>  <Name>
2fcx_lig

>  <RI>
1.21945e+07

>  <Rbt.Current_Directory>
/home/itssahil/PROJECTS/Mol_Feturizer/New_Systems/rnas/2fcx

>  <Rbt.Executable>
rbdock ($Id: //depot/dev/client3/rdock/2013.1/src/exe/rbdock.cxx#4 $)

>  <Rbt.Library>
libRbt.so (2013.1, Build901 2013/11/27)

>  <Rbt.Parameter_File>
/export/apps/rDock/src/rDock_2013.1_src/data/scripts/dock_solv.prm

>  <Rbt.Receptor>
prm/pocket_docking_3.prm

>  <SCORE>
-5.2563

>  <SCORE.INTER>
-16.8965

>  <SCORE.INTER.CONST>
1

>  <SCORE.INTER.POLAR>
-1.67756

>  <SCORE.INTER.ROT>
3

>  <SCORE.INTER.SOLV>
14.7027

>  <SCORE.INTER.VDW>
-16.1734

>  <SCORE.INTER.norm>
-0.768022

>  <SCORE.INTRA>
11.6402

>  <SCORE.INTRA.DIHEDRAL>
9.56749

>  <SCORE.INTRA.DIHEDRAL.0>
4.88619

>  <SCORE.INTRA.POLAR>
0

>  <SCORE.INTRA.POLAR.0>
0

>  <SCORE.INTRA.REPUL>
0

>  <SCORE.INTRA.REPUL.0>
0

>  <SCORE.INTRA.SOLV>
1.26011

>  <SCORE.INTRA.SOLV.lig_0>
-73.8187

>  <SCORE.INTRA.VDW>
6.22639

>  <SCORE.INTRA.VDW.0>
-1.32335

>  <SCORE.INTRA.norm>
0.529099

>  <SCORE.RESTR>
0

>  <SCORE.RESTR.CAVITY>
0

>  <SCORE.RESTR.norm>
0

>  <SCORE.SYSTEM>
0

>  <SCORE.SYSTEM.CONST>
0

>  <SCORE.SYSTEM.DIHEDRAL>
0

>  <SCORE.SYSTEM.SOLV>
0

>  <SCORE.SYSTEM.norm>
0

>  <SCORE.heavy>
22

>  <SCORE.norm>
-0.238923

>  <RMSD>
1.568

$$$$
2fcx_lig
 OpenBabel11021811433D
libRbt.so/2013.1/901 2013/11/27
 22 23  0  0  0  0  0  0  0  0999 V2000
   29.4484   13.8074   10.5335 N   0  0  0  0  0  0  0  0  0  0  0  0
   29.9596   11.2772   14.7062 N   0  0  0  0  0  0  0  0  0  0  0  0
   29.3048    6.7255   17.6460 N   0  0  0  0  0  0  0  0  0  0  0  0
   26.5614    9.9858   11.4713 O   0  0  0  0  0  0  0  0  0  0  0  0
   27.2354   11.1028   12.0575 C   0  0  2  0  0  0  0  0  0  0  0  0
   24.6226    9.6542   14.1121 N   0  0  0  0  0  0  0  0  0  0  0  0
   26.9549   12.4274   10.0764 O   0  0  0  0  0  0  0  0  0  0  0  0
   27.9477   11.9120   10.9711 C   0  0  1  0  0  0  0  0  0  0  0  0
   27.4674   10.0214   14.2273 O   0  0  0  0  0  0  0  0  0  0  0  0
   28.7334   13.0721   11.5869 C   0  0  1  0  0  0  0  0  0  0  0  0
   27.7914    7.7062   14.3905 O   0  0  0  0  0  0  0  0  0  0  0  0
   29.7461   12.5522   12.6128 C   0  0  0  0  0  0  0  0  0  0  0  0
   26.7759    7.6037   17.9457 O   0  0  0  0  0  0  0  0  0  0  0  0
   29.0043   11.7873   13.7125 C   0  0  1  0  0  0  0  0  0  0  0  0
   24.3702    8.4203   16.6905 O   0  0  0  0  0  0  0  0  0  0  0  0
   28.2020   10.6136   13.1430 C   0  0  2  0  0  0  0  0  0  0  0  0
   26.9084    8.7356   13.9078 C   0  0  1  0  0  0  0  0  0  0  0  0
   27.9568    7.6984   15.8228 C   0  0  2  0  0  0  0  0  0  0  0  0
   28.8790    6.5540   16.2490 C   0  0  0  0  0  0  0  0  0  0  0  0
   26.6091    7.5194   16.5271 C   0  0  2  0  0  0  0  0  0  0  0  0
   25.6473    8.6225   16.0825 C   0  0  1  0  0  0  0  0  0  0  0  0
   25.5270    8.5853   14.5567 C   0  0  1  0  0  0  0  0  0  0  0  0
  5  4  1  6  0  0  0
  5  8  1  0  0  0  0
  5 16  1  0  0  0  0
  8  7  1  6  0  0  0
  8 10  1  0  0  0  0
 10  1  1  6  0  0  0
 10 12  1  0  0  0  0
 11 18  1  0  0  0  0
 12 14  1  0  0  0  0
 14  2  1  1  0  0  0
 14 16  1  0  0  0  0
 16  9  1  1  0  0  0
 17  9  1  1  0  0  0
 17 11  1  0  0  0  0
 17 22  1  0  0  0  0
 18 19  1  6  0  0  0
 18 20  1  0  0  0  0
 19  3  1  0  0  0  0
 20 13  1  1  0  0  0
 20 21  1  0  0  0  0
 21 15  1  1  0  0  0
 21 22  1  0  0  0  0
 22  6  1  6  0  0  0
M  END
>  <CHROM.1>
72.83200048,96.87297114,166.66067685,27.50101485,9.81319513,14.05684960,-1.37121265
0.21529039,2.27628016

>  <Name>
2fcx_lig

>  <RI>
1.21945e+07

>  <Rbt.Current_Directory>
/home/itssahil/PROJECTS/Mol_Feturizer/New_Systems/rnas/2fcx

>  <Rbt.Executable>
rbdock ($Id: //depot/dev/client3/rdock/2013.1/src/exe/rbdock.cxx#4 $)

>  <Rbt.Library>
libRbt.so (2013.1, Build901 2013/11/27)

>  <Rbt.Parameter_File>
/export/apps/rDock/src/rDock_2013.1_src/data/scripts/dock_solv.prm

>  <Rbt.Receptor>
prm/pocket_docking_3.prm

>  <SCORE>
-12.4211

>  <SCORE.INTER>
-14.058

>  <SCORE.INTER.CONST>
1

>  <SCORE.INTER.POLAR>
-1.34045

>  <SCORE.INTER.ROT>
3

>  <SCORE.INTER.SOLV>
10.6586

>  <SCORE.INTER.VDW>
-14.0567

>  <SCORE.INTER.norm>
-0.639

>  <SCORE.INTRA>
1.6368

>  <SCORE.INTRA.DIHEDRAL>
1.39396

>  <SCORE.INTRA.DIHEDRAL.0>
4.88619

>  <SCORE.INTRA.POLAR>
0

>  <SCORE.INTRA.POLAR.0>
0

>  <SCORE.INTRA.REPUL>
0

>  <SCORE.INTRA.REPUL.0>
0

>  <SCORE.INTRA.SOLV>
1.27312

>  <SCORE.INTRA.SOLV.lig_0>
-73.8187

>  <SCORE.INTRA.VDW>
0.303261

>  <SCORE.INTRA.VDW.0>
-1.32335

>  <SCORE.INTRA.norm>
0.0744002

>  <SCORE.RESTR>
7.70447e-05

>  <SCORE.RESTR.CAVITY>
7.70447e-05

>  <SCORE.RESTR.norm>
3.50203e-06

>  <SCORE.SYSTEM>
0

>  <SCORE.SYSTEM.CONST>
0

>  <SCORE.SYSTEM.DIHEDRAL>
0

>  <SCORE.SYSTEM.SOLV>
0

>  <SCORE.SYSTEM.norm>
0

>  <SCORE.heavy>
22

>  <SCORE.norm>
-0.564596

>  <RMSD>
1.648

$$$$
2fcx_lig
 OpenBabel11021811433D
libRbt.so/2013.1/901 2013/11/27
 22 23  0  0  0  0  0  0  0  0999 V2000
   30.6741   14.4039   11.3761 N   0  0  0  0  0  0  0  0  0  0  0  0
   29.3723   11.8864   15.3814 N   0  0  0  0  0  0  0  0  0  0  0  0
   28.5858    6.3762   15.2813 N   0  0  0  0  0  0  0  0  0  0  0  0
   27.1552   11.0307   11.1350 O   0  0  0  0  0  0  0  0  0  0  0  0
   27.7297   12.0521   11.9549 C   0  0  2  0  0  0  0  0  0  0  0  0
   24.2672   10.3060   13.8685 N   0  0  0  0  0  0  0  0  0  0  0  0
   28.3292   13.3748   10.0445 O   0  0  0  0  0  0  0  0  0  0  0  0
   28.8744   12.7399   11.2071 C   0  0  1  0  0  0  0  0  0  0  0  0
   27.0528   10.9798   14.0340 O   0  0  0  0  0  0  0  0  0  0  0  0
   29.5482   13.7891   12.0945 C   0  0  1  0  0  0  0  0  0  0  0  0
   27.6272    8.7107   14.1498 O   0  0  0  0  0  0  0  0  0  0  0  0
   30.0661   13.1490   13.3869 C   0  0  0  0  0  0  0  0  0  0  0  0
   26.5858    8.4124   17.6865 O   0  0  0  0  0  0  0  0  0  0  0  0
   28.8954   12.5093   14.1386 C   0  0  1  0  0  0  0  0  0  0  0  0
   24.1204    8.9904   16.4145 O   0  0  0  0  0  0  0  0  0  0  0  0
   28.1883   11.4496   13.2885 C   0  0  2  0  0  0  0  0  0  0  0  0
   26.6424    9.6485   13.6774 C   0  0  1  0  0  0  0  0  0  0  0  0
   27.7750    8.6868   15.5839 C   0  0  2  0  0  0  0  0  0  0  0  0
   28.8120    7.6404   15.9978 C   0  0  0  0  0  0  0  0  0  0  0  0
   26.4466    8.3444   16.2639 C   0  0  2  0  0  0  0  0  0  0  0  0
   25.3749    9.3458   15.8302 C   0  0  1  0  0  0  0  0  0  0  0  0
   25.2781    9.3323   14.3023 C   0  0  1  0  0  0  0  0  0  0  0  0
  5  4  1  6  0  0  0
  5  8  1  0  0  0  0
  5 16  1  0  0  0  0
  8  7  1  6  0  0  0
  8 10  1  0  0  0  0
 10  1  1  6  0  0  0
 10 12  1  0  0  0  0
 11 18  1  0  0  0  0
 12 14  1  0  0  0  0
 14  2  1  1  0  0  0
 14 16  1  0  0  0  0
 16  9  1  1  0  0  0
 17  9  1  1  0  0  0
 17 11  1  0  0  0  0
 17 22  1  0  0  0  0
 18 19  1  6  0  0  0
 18 20  1  0  0  0  0
 19  3  1  0  0  0  0
 20 13  1  1  0  0  0
 20 21  1  0  0  0  0
 21 15  1  1  0  0  0
 21 22  1  0  0  0  0
 22  6  1  1  0  0  0
M  END
>  <CHROM.1>
85.04364260,70.61319149,-46.00272480,27.58292174,10.57855715,13.96119384
-1.15363233,0.21731980,2.31980108

>  <Name>
2fcx_lig

>  <RI>
1.55453e+07

>  <Rbt.Current_Directory>
/home/itssahil/PROJECTS/Mol_Feturizer/New_Systems/rnas/2fcx

>  <Rbt.Executable>
rbdock ($Id: //depot/dev/client3/rdock/2013.1/src/exe/rbdock.cxx#4 $)

>  <Rbt.Library>
libRbt.so (2013.1, Build901 2013/11/27)

>  <Rbt.Parameter_File>
/export/apps/rDock/src/rDock_2013.1_src/data/scripts/dock_solv.prm

>  <Rbt.Receptor>
prm/pocket_docking_4.prm

>  <SCORE>
-12.1065

>  <SCORE.INTER>
-11.9089

>  <SCORE.INTER.CONST>
1

>  <SCORE.INTER.POLAR>
-1.733

>  <SCORE.INTER.ROT>
3

>  <SCORE.INTER.SOLV>
14.9181

>  <SCORE.INTER.VDW>
-12.7353

>  <SCORE.INTER.norm>
-0.541312

>  <SCORE.INTRA>
-0.19761

>  <SCORE.INTRA.DIHEDRAL>
-0.990993

>  <SCORE.INTRA.DIHEDRAL.0>
4.88619

>  <SCORE.INTRA.POLAR>
0

>  <SCORE.INTRA.POLAR.0>
0

>  <SCORE.INTRA.REPUL>
0

>  <SCORE.INTRA.REPUL.0>
0

>  <SCORE.INTRA.SOLV>
1.32944

>  <SCORE.INTRA.SOLV.lig_0>
-73.8187

>  <SCORE.INTRA.VDW>
-0.366836

>  <SCORE.INTRA.VDW.0>
-1.32335

>  <SCORE.INTRA.norm>
-0.00898229

>  <SCORE.RESTR>
0

>  <SCORE.RESTR.CAVITY>
0

>  <SCORE.RESTR.norm>
0

>  <SCORE.SYSTEM>
0

>  <SCORE.SYSTEM.CONST>
0

>  <SCORE.SYSTEM.DIHEDRAL>
0

>  <SCORE.SYSTEM.SOLV>
0

>  <SCORE.SYSTEM.norm>
0

>  <SCORE.heavy>
22

>  <SCORE.norm>
-0.550295

>  <RMSD>
1.785

$$$$
2fcx_lig
 OpenBabel11021811433D
libRbt.so/2013.1/901 2013/11/27
 22 23  0  0  0  0  0  0  0  0999 V2000
   29.1116   11.9679    9.7740 N   0  0  0  0  0  0  0  0  0  0  0  0
   30.1217   10.9811   14.4730 N   0  0  0  0  0  0  0  0  0  0  0  0
   30.3730    6.3213   17.1778 N   0  0  0  0  0  0  0  0  0  0  0  0
   27.1510    8.0653   11.9524 O   0  0  0  0  0  0  0  0  0  0  0  0
   27.5463    9.4262   12.1457 C   0  0  2  0  0  0  0  0  0  0  0  0
   25.1457    8.8661   14.1903 N   0  0  0  0  0  0  0  0  0  0  0  0
   27.0019   10.0009    9.8804 O   0  0  0  0  0  0  0  0  0  0  0  0
   28.0726   10.0089   10.8320 C   0  0  1  0  0  0  0  0  0  0  0  0
   27.9855    9.1231   14.5219 O   0  0  0  0  0  0  0  0  0  0  0  0
   28.5663   11.4433   11.0347 C   0  0  1  0  0  0  0  0  0  0  0  0
   28.1242    6.9216   15.3131 O   0  0  0  0  0  0  0  0  0  0  0  0
   29.6555   11.4908   12.1116 C   0  0  0  0  0  0  0  0  0  0  0  0
   26.7694    7.8096   18.6384 O   0  0  0  0  0  0  0  0  0  0  0  0
   29.0903   10.9467   13.4266 C   0  0  1  0  0  0  0  0  0  0  0  0
   24.5598    8.3715   16.9555 O   0  0  0  0  0  0  0  0  0  0  0  0
   28.5827    9.5099   13.2729 C   0  0  2  0  0  0  0  0  0  0  0  0
   27.3681    7.8249   14.4857 C   0  0  1  0  0  0  0  0  0  0  0  0
   28.1512    7.2859   16.7079 C   0  0  2  0  0  0  0  0  0  0  0  0
   28.9433    6.2551   17.5152 C   0  0  0  0  0  0  0  0  0  0  0  0
   26.7331    7.3602   17.2803 C   0  0  2  0  0  0  0  0  0  0  0  0
   25.9004    8.3482   16.4617 C   0  0  1  0  0  0  0  0  0  0  0  0
   25.9239    7.9137   14.9938 C   0  0  1  0  0  0  0  0  0  0  0  0
  5  4  1  6  0  0  0
  5  8  1  0  0  0  0
  5 16  1  0  0  0  0
  8  7  1  6  0  0  0
  8 10  1  0  0  0  0
 10  1  1  6  0  0  0
 10 12  1  0  0  0  0
 11 18  1  0  0  0  0
 12 14  1  0  0  0  0
 14  2  1  1  0  0  0
 14 16  1  0  0  0  0
 16  9  1  1  0  0  0
 17  9  1  1  0  0  0
 17 11  1  0  0  0  0
 17 22  1  0  0  0  0
 18 19  1  1  0  0  0
 18 20  1  0  0  0  0
 19  3  1  0  0  0  0
 20 13  1  1  0  0  0
 20 21  1  0  0  0  0
 21 15  1  1  0  0  0
 21 22  1  0  0  0  0
 22  6  1  6  0  0  0
M  END
>  <CHROM.1>
54.90178206,111.65200515,68.91624784,27.74069996,8.89658495,14.25127452,-1.40304652
0.14765353,2.06175968

>  <Name>
2fcx_lig

>  <RI>
1.21945e+07

>  <Rbt.Current_Directory>
/home/itssahil/PROJECTS/Mol_Feturizer/New_Systems/rnas/2fcx

>  <Rbt.Executable>
rbdock ($Id: //depot/dev/client3/rdock/2013.1/src/exe/rbdock.cxx#4 $)

>  <Rbt.Library>
libRbt.so (2013.1, Build901 2013/11/27)

>  <Rbt.Parameter_File>
/export/apps/rDock/src/rDock_2013.1_src/data/scripts/dock_solv.prm

>  <Rbt.Receptor>
prm/pocket_docking_3.prm

>  <SCORE>
-12.4215

>  <SCORE.INTER>
-15.6811

>  <SCORE.INTER.CONST>
1

>  <SCORE.INTER.POLAR>
-1.73937

>  <SCORE.INTER.ROT>
3

>  <SCORE.INTER.SOLV>
18.3904

>  <SCORE.INTER.VDW>
-16.3863

>  <SCORE.INTER.norm>
-0.712776

>  <SCORE.INTRA>
3.23922

>  <SCORE.INTRA.DIHEDRAL>
2.38592

>  <SCORE.INTRA.DIHEDRAL.0>
4.88619

>  <SCORE.INTRA.POLAR>
0

>  <SCORE.INTRA.POLAR.0>
0

>  <SCORE.INTRA.REPUL>
0

>  <SCORE.INTRA.REPUL.0>
0

>  <SCORE.INTRA.SOLV>
0.367925

>  <SCORE.INTRA.SOLV.lig_0>
-73.8187

>  <SCORE.INTRA.VDW>
1.8623

>  <SCORE.INTRA.VDW.0>
-1.32335

>  <SCORE.INTRA.norm>
0.147237

>  <SCORE.RESTR>
0.0203607

>  <SCORE.RESTR.CAVITY>
0.0203607

>  <SCORE.RESTR.norm>
0.000925484

>  <SCORE.SYSTEM>
0

>  <SCORE.SYSTEM.CONST>
0

>  <SCORE.SYSTEM.DIHEDRAL>
0

>  <SCORE.SYSTEM.SOLV>
0

>  <SCORE.SYSTEM.norm>
0

>  <SCORE.heavy>
22

>  <SCORE.norm>
-0.564613

>  <RMSD>
1.868

$$$$
2fcx_lig
 OpenBabel11021811433D
libRbt.so/2013.1/901 2013/11/27
 22 23  0  0  0  0  0  0  0  0999 V2000
   28.3866   13.6492   10.3287 N   0  0  0  0  0  0  0  0  0  0  0  0
   29.8441   11.4517   14.4665 N   0  0  0  0  0  0  0  0  0  0  0  0
   30.2429    6.9377   16.7301 N   0  0  0  0  0  0  0  0  0  0  0  0
   26.3378    9.4531   11.7478 O   0  0  0  0  0  0  0  0  0  0  0  0
   26.8789   10.6944   12.2079 C   0  0  2  0  0  0  0  0  0  0  0  0
   24.7466    9.3375   14.0222 N   0  0  0  0  0  0  0  0  0  0  0  0
   26.1288   11.8530   10.2449 O   0  0  0  0  0  0  0  0  0  0  0  0
   27.2998   11.5552   11.0144 C   0  0  1  0  0  0  0  0  0  0  0  0
   27.5636    9.7768   14.3574 O   0  0  0  0  0  0  0  0  0  0  0  0
   27.9463   12.8591   11.4878 C   0  0  1  0  0  0  0  0  0  0  0  0
   27.9004    7.4973   14.7843 O   0  0  0  0  0  0  0  0  0  0  0  0
   29.1539   12.5668   12.3847 C   0  0  0  0  0  0  0  0  0  0  0  0
   26.5614    7.7295   18.2245 O   0  0  0  0  0  0  0  0  0  0  0  0
   28.6983   11.7454   13.5941 C   0  0  1  0  0  0  0  0  0  0  0  0
   24.2721    8.3631   16.6792 O   0  0  0  0  0  0  0  0  0  0  0  0
   28.0437   10.4277   13.1691 C   0  0  2  0  0  0  0  0  0  0  0  0
   27.0529    8.4535   14.1210 C   0  0  1  0  0  0  0  0  0  0  0  0
   27.9326    7.6369   16.2190 C   0  0  2  0  0  0  0  0  0  0  0  0
   28.8257    6.5615   16.8416 C   0  0  0  0  0  0  0  0  0  0  0  0
   26.5278    7.4998   16.8125 C   0  0  2  0  0  0  0  0  0  0  0  0
   25.5974    8.5314   16.1723 C   0  0  1  0  0  0  0  0  0  0  0  0
   25.6194    8.3387   14.6537 C   0  0  1  0  0  0  0  0  0  0  0  0
  5  4  1  6  0  0  0
  5  8  1  0  0  0  0
  5 16  1  0  0  0  0
  8  7  1  1  0  0  0
  8 10  1  0  0  0  0
 10  1  1  6  0  0  0
 10 12  1  0  0  0  0
 11 18  1  0  0  0  0
 12 14  1  0  0  0  0
 14  2  1  1  0  0  0
 14 16  1  0  0  0  0
 16  9  1  1  0  0  0
 17  9  1  1  0  0  0
 17 11  1  0  0  0  0
 17 22  1  0  0  0  0
 18 19  1  1  0  0  0
 18 20  1  0  0  0  0
 19  3  1  0  0  0  0
 20 13  1  1  0  0  0
 20 21  1  0  0  0  0
 21 15  1  1  0  0  0
 21 22  1  0  0  0  0
 22  6  1  6  0  0  0
M  END
>  <CHROM.1>
66.03270801,114.15863602,80.00511371,27.31572290,9.65325676,14.11711090,-1.47883184
0.18653975,2.27169575

>  <Name>
2fcx_lig

>  <RI>
3.23342e+07

>  <Rbt.Current_Directory>
/home/itssahil/PROJECTS/Mol_Feturizer/New_Systems/rnas/2fcx

>  <Rbt.Executable>
rbdock ($Id: //depot/dev/client3/rdock/2013.1/src/exe/rbdock.cxx#4 $)

>  <Rbt.Library>
libRbt.so (2013.1, Build901 2013/11/27)

>  <Rbt.Parameter_File>
/export/apps/rDock/src/rDock_2013.1_src/data/scripts/dock_solv.prm

>  <Rbt.Receptor>
prm/pocket_docking_5.prm

>  <SCORE>
-12.2795

>  <SCORE.INTER>
-15.0654

>  <SCORE.INTER.CONST>
1

>  <SCORE.INTER.POLAR>
-1.81094

>  <SCORE.INTER.ROT>
3

>  <SCORE.INTER.SOLV>
12.6507

>  <SCORE.INTER.VDW>
-13.824

>  <SCORE.INTER.norm>
-0.684791

>  <SCORE.INTRA>
2.78593

>  <SCORE.INTRA.DIHEDRAL>
3.63893

>  <SCORE.INTRA.DIHEDRAL.0>
4.88619

>  <SCORE.INTRA.POLAR>
0

>  <SCORE.INTRA.POLAR.0>
0

>  <SCORE.INTRA.REPUL>
0

>  <SCORE.INTRA.REPUL.0>
0

>  <SCORE.INTRA.SOLV>
0.602128

>  <SCORE.INTRA.SOLV.lig_0>
-73.8187

>  <SCORE.INTRA.VDW>
0.665404

>  <SCORE.INTRA.VDW.0>
-1.32335

>  <SCORE.INTRA.norm>
0.126633

>  <SCORE.RESTR>
0

>  <SCORE.RESTR.CAVITY>
0

>  <SCORE.RESTR.norm>
0

>  <SCORE.SYSTEM>
0

>  <SCORE.SYSTEM.CONST>
0

>  <SCORE.SYSTEM.DIHEDRAL>
0

>  <SCORE.SYSTEM.SOLV>
0

>  <SCORE.SYSTEM.norm>
0

>  <SCORE.heavy>
22

>  <SCORE.norm>
-0.558158

>  <RMSD>
1.891

$$$$
2fcx_lig
 OpenBabel11021811433D
libRbt.so/2013.1/901 2013/11/27
 22 23  0  0  0  0  0  0  0  0999 V2000
   29.1411   11.8975    9.6602 N   0  0  0  0  0  0  0  0  0  0  0  0
   30.1568   10.8926   14.3542 N   0  0  0  0  0  0  0  0  0  0  0  0
   29.3214    6.6939   18.7152 N   0  0  0  0  0  0  0  0  0  0  0  0
   27.0736    8.0666   11.8667 O   0  0  0  0  0  0  0  0  0  0  0  0
   27.5139    9.4146   12.0525 C   0  0  2  0  0  0  0  0  0  0  0  0
   25.1089    8.8830   14.2050 N   0  0  0  0  0  0  0  0  0  0  0  0
   26.9701    9.9998    9.7898 O   0  0  0  0  0  0  0  0  0  0  0  0
   28.0482    9.9762   10.7327 C   0  0  1  0  0  0  0  0  0  0  0  0
   27.9624    9.1046   14.4261 O   0  0  0  0  0  0  0  0  0  0  0  0
   28.5895   11.3944   10.9268 C   0  0  1  0  0  0  0  0  0  0  0  0
   28.1056    6.8971   15.1997 O   0  0  0  0  0  0  0  0  0  0  0  0
   29.6883   11.4101   11.9949 C   0  0  0  0  0  0  0  0  0  0  0  0
   26.8930    7.7819   18.5802 O   0  0  0  0  0  0  0  0  0  0  0  0
   29.1164   10.8884   13.3161 C   0  0  1  0  0  0  0  0  0  0  0  0
   24.6260    8.3794   16.9884 O   0  0  0  0  0  0  0  0  0  0  0  0
   28.5616    9.4682   13.1712 C   0  0  2  0  0  0  0  0  0  0  0  0
   27.3285    7.8140   14.4073 C   0  0  1  0  0  0  0  0  0  0  0  0
   28.1917    7.2531   16.5942 C   0  0  2  0  0  0  0  0  0  0  0  0
   29.0024    6.2084   17.3643 C   0  0  0  0  0  0  0  0  0  0  0  0
   26.7981    7.3408   17.2223 C   0  0  2  0  0  0  0  0  0  0  0  0
   25.9458    8.3432   16.4422 C   0  0  1  0  0  0  0  0  0  0  0  0
   25.9065    7.9169   14.9723 C   0  0  1  0  0  0  0  0  0  0  0  0
  5  4  1  6  0  0  0
  5  8  1  0  0  0  0
  5 16  1  0  0  0  0
  8  7  1  6  0  0  0
  8 10  1  0  0  0  0
 10  1  1  6  0  0  0
 10 12  1  0  0  0  0
 11 18  1  0  0  0  0
 12 14  1  0  0  0  0
 14  2  1  1  0  0  0
 14 16  1  0  0  0  0
 16  9  1  1  0  0  0
 17  9  1  1  0  0  0
 17 11  1  0  0  0  0
 17 22  1  0  0  0  0
 18 19  1  1  0  0  0
 18 20  1  0  0  0  0
 19  3  1  0  0  0  0
 20 13  1  1  0  0  0
 20 21  1  0  0  0  0
 21 15  1  1  0  0  0
 21 22  1  0  0  0  0
 22  6  1  6  0  0  0
M  END
>  <CHROM.1>
56.18835479,109.28965926,168.69925228,27.70336776,8.88718999,14.24383724
-1.40869056,0.26562242,2.01350920

>  <Name>
2fcx_lig

>  <RI>
1.21945e+07

>  <Rbt.Current_Directory>
/home/itssahil/PROJECTS/Mol_Feturizer/New_Systems/rnas/2fcx

>  <Rbt.Executable>
rbdock ($Id: //depot/dev/client3/rdock/2013.1/src/exe/rbdock.cxx#4 $)

>  <Rbt.Library>
libRbt.so (2013.1, Build901 2013/11/27)

>  <Rbt.Parameter_File>
/export/apps/rDock/src/rDock_2013.1_src/data/scripts/dock_solv.prm

>  <Rbt.Receptor>
prm/pocket_docking_3.prm

>  <SCORE>
-12.658

>  <SCORE.INTER>
-16.5791

>  <SCORE.INTER.CONST>
1

>  <SCORE.INTER.POLAR>
-1.76396

>  <SCORE.INTER.ROT>
3

>  <SCORE.INTER.SOLV>
15.6238

>  <SCORE.INTER.VDW>
-15.9808

>  <SCORE.INTER.norm>
-0.753594

>  <SCORE.INTRA>
3.78817

>  <SCORE.INTRA.DIHEDRAL>
2.29341

>  <SCORE.INTRA.DIHEDRAL.0>
4.88619

>  <SCORE.INTRA.POLAR>
0

>  <SCORE.INTRA.POLAR.0>
0

>  <SCORE.INTRA.REPUL>
0

>  <SCORE.INTRA.REPUL.0>
0

>  <SCORE.INTRA.SOLV>
1.4357

>  <SCORE.INTRA.SOLV.lig_0>
-73.8187

>  <SCORE.INTRA.VDW>
1.92362

>  <SCORE.INTRA.VDW.0>
-1.32335

>  <SCORE.INTRA.norm>
0.17219

>  <SCORE.RESTR>
0.132915

>  <SCORE.RESTR.CAVITY>
0.132915

>  <SCORE.RESTR.norm>
0.0060416

>  <SCORE.SYSTEM>
0

>  <SCORE.SYSTEM.CONST>
0

>  <SCORE.SYSTEM.DIHEDRAL>
0

>  <SCORE.SYSTEM.SOLV>
0

>  <SCORE.SYSTEM.norm>
0

>  <SCORE.heavy>
22

>  <SCORE.norm>
-0.575363

>  <RMSD>
1.966

$$$$
2fcx_lig
 OpenBabel11021811433D
libRbt.so/2013.1/901 2013/11/27
 22 23  0  0  0  0  0  0  0  0999 V2000
   28.4711   13.8551   10.3680 N   0  0  0  0  0  0  0  0  0  0  0  0
   29.7985   11.3649   14.3819 N   0  0  0  0  0  0  0  0  0  0  0  0
   29.2673    6.7347   17.7674 N   0  0  0  0  0  0  0  0  0  0  0  0
   26.0953    9.7883   11.6468 O   0  0  0  0  0  0  0  0  0  0  0  0
   26.7465   10.9586   12.1487 C   0  0  2  0  0  0  0  0  0  0  0  0
   24.5409    9.4978   14.1615 N   0  0  0  0  0  0  0  0  0  0  0  0
   26.0681   12.2604   10.2505 O   0  0  0  0  0  0  0  0  0  0  0  0
   27.2210   11.8320   10.9849 C   0  0  1  0  0  0  0  0  0  0  0  0
   27.3829    9.8940   14.2446 O   0  0  0  0  0  0  0  0  0  0  0  0
   27.9827   13.0551   11.5007 C   0  0  1  0  0  0  0  0  0  0  0  0
   27.7289    7.5890   14.4875 O   0  0  0  0  0  0  0  0  0  0  0  0
   29.1744   12.6236   12.3620 C   0  0  0  0  0  0  0  0  0  0  0  0
   26.7371    7.6037   18.0509 O   0  0  0  0  0  0  0  0  0  0  0  0
   28.6690   11.7916   13.5440 C   0  0  1  0  0  0  0  0  0  0  0  0
   24.3161    8.3540   16.7836 O   0  0  0  0  0  0  0  0  0  0  0  0
   27.8987   10.5533   13.0761 C   0  0  2  0  0  0  0  0  0  0  0  0
   26.8336    8.5928   13.9746 C   0  0  1  0  0  0  0  0  0  0  0  0
   27.9036    7.6335   15.9180 C   0  0  2  0  0  0  0  0  0  0  0  0
   28.8387    6.5131   16.3783 C   0  0  0  0  0  0  0  0  0  0  0  0
   26.5621    7.4677   16.6372 C   0  0  2  0  0  0  0  0  0  0  0  0
   25.5875    8.5458   16.1603 C   0  0  1  0  0  0  0  0  0  0  0  0
   25.4578    8.4534   14.6376 C   0  0  1  0  0  0  0  0  0  0  0  0
  5  4  1  6  0  0  0
  5  8  1  0  0  0  0
  5 16  1  0  0  0  0
  8  7  1  1  0  0  0
  8 10  1  0  0  0  0
 10  1  1  6  0  0  0
 10 12  1  0  0  0  0
 11 18  1  0  0  0  0
 12 14  1  0  0  0  0
 14  2  1  6  0  0  0
 14 16  1  0  0  0  0
 16  9  1  1  0  0  0
 17  9  1  1  0  0  0
 17 11  1  0  0  0  0
 17 22  1  0  0  0  0
 18 19  1  1  0  0  0
 18 20  1  0  0  0  0
 19  3  1  0  0  0  0
 20 13  1  1  0  0  0
 20 21  1  0  0  0  0
 21 15  1  1  0  0  0
 21 22  1  0  0  0  0
 22  6  1  6  0  0  0
M  END
>  <CHROM.1>
69.71294027,107.17817280,166.90580183,27.21237304,9.74709651,14.08010626
-1.47844568,0.20999772,2.29133546

>  <Name>
2fcx_lig

>  <RI>
1.55453e+07

>  <Rbt.Current_Directory>
/home/itssahil/PROJECTS/Mol_Feturizer/New_Systems/rnas/2fcx

>  <Rbt.Executable>
rbdock ($Id: //depot/dev/client3/rdock/2013.1/src/exe/rbdock.cxx#4 $)

>  <Rbt.Library>
libRbt.so (2013.1, Build901 2013/11/27)

>  <Rbt.Parameter_File>
/export/apps/rDock/src/rDock_2013.1_src/data/scripts/dock_solv.prm

>  <Rbt.Receptor>
prm/pocket_docking_4.prm

>  <SCORE>
-13.8645

>  <SCORE.INTER>
-16.3952

>  <SCORE.INTER.CONST>
1

>  <SCORE.INTER.POLAR>
-1.8058

>  <SCORE.INTER.ROT>
3

>  <SCORE.INTER.SOLV>
9.33845

>  <SCORE.INTER.VDW>
-13.6236

>  <SCORE.INTER.norm>
-0.745238

>  <SCORE.INTRA>
2.53077

>  <SCORE.INTRA.DIHEDRAL>
2.59586

>  <SCORE.INTRA.DIHEDRAL.0>
4.88619

>  <SCORE.INTRA.POLAR>
0

>  <SCORE.INTRA.POLAR.0>
0

>  <SCORE.INTRA.REPUL>
0

>  <SCORE.INTRA.REPUL.0>
0

>  <SCORE.INTRA.SOLV>
1.53349

>  <SCORE.INTRA.SOLV.lig_0>
-73.8187

>  <SCORE.INTRA.VDW>
0.466089

>  <SCORE.INTRA.VDW.0>
-1.32335

>  <SCORE.INTRA.norm>
0.115035

>  <SCORE.RESTR>
0

>  <SCORE.RESTR.CAVITY>
0

>  <SCORE.RESTR.norm>
0

>  <SCORE.SYSTEM>
0

>  <SCORE.SYSTEM.CONST>
0

>  <SCORE.SYSTEM.DIHEDRAL>
0

>  <SCORE.SYSTEM.SOLV>
0

>  <SCORE.SYSTEM.norm>
0

>  <SCORE.heavy>
22

>  <SCORE.norm>
-0.630204

>  <RMSD>
1.982

$$$$
2fcx_lig
 OpenBabel11021811433D
libRbt.so/2013.1/901 2013/11/27
 22 23  0  0  0  0  0  0  0  0999 V2000
   28.4691   13.9294   10.3799 N   0  0  0  0  0  0  0  0  0  0  0  0
   29.8251   11.4081   14.3647 N   0  0  0  0  0  0  0  0  0  0  0  0
   29.2516    6.7028   17.7156 N   0  0  0  0  0  0  0  0  0  0  0  0
   26.1182    9.8394   11.6302 O   0  0  0  0  0  0  0  0  0  0  0  0
   26.7658   11.0080   12.1404 C   0  0  2  0  0  0  0  0  0  0  0  0
   24.5690    9.5697   14.1356 N   0  0  0  0  0  0  0  0  0  0  0  0
   26.0734   12.3243   10.2572 O   0  0  0  0  0  0  0  0  0  0  0  0
   27.2313   11.8946   10.9829 C   0  0  1  0  0  0  0  0  0  0  0  0
   27.4160    9.9269   14.2236 O   0  0  0  0  0  0  0  0  0  0  0  0
   27.9893   13.1165   11.5071 C   0  0  1  0  0  0  0  0  0  0  0  0
   27.7310    7.6151   14.4424 O   0  0  0  0  0  0  0  0  0  0  0  0
   29.1866   12.6827   12.3594 C   0  0  0  0  0  0  0  0  0  0  0  0
   26.7381    7.6058   18.0055 O   0  0  0  0  0  0  0  0  0  0  0  0
   28.6900   11.8372   13.5355 C   0  0  1  0  0  0  0  0  0  0  0  0
   24.3279    8.4017   16.7455 O   0  0  0  0  0  0  0  0  0  0  0  0
   27.9237   10.5996   13.0592 C   0  0  2  0  0  0  0  0  0  0  0  0
   26.8494    8.6361   13.9398 C   0  0  1  0  0  0  0  0  0  0  0  0
   27.9057    7.6423   15.8734 C   0  0  2  0  0  0  0  0  0  0  0  0
   28.8256    6.5047   16.3221 C   0  0  0  0  0  0  0  0  0  0  0  0
   26.5618    7.4869   16.5904 C   0  0  2  0  0  0  0  0  0  0  0  0
   25.6019    8.5829   16.1246 C   0  0  1  0  0  0  0  0  0  0  0  0
   25.4716    8.5082   14.6010 C   0  0  1  0  0  0  0  0  0  0  0  0
  5  4  1  6  0  0  0
  5  8  1  0  0  0  0
  5 16  1  0  0  0  0
  8  7  1  1  0  0  0
  8 10  1  0  0  0  0
 10  1  1  6  0  0  0
 10 12  1  0  0  0  0
 11 18  1  0  0  0  0
 12 14  1  0  0  0  0
 14  2  1  6  0  0  0
 14 16  1  0  0  0  0
 16  9  1  1  0  0  0
 17  9  1  1  0  0  0
 17 11  1  0  0  0  0
 17 22  1  0  0  0  0
 18 19  1  1  0  0  0
 18 20  1  0  0  0  0
 19  3  1  0  0  0  0
 20 13  1  1  0  0  0
 20 21  1  0  0  0  0
 21 15  1  1  0  0  0
 21 22  1  0  0  0  0
 22  6  1  6  0  0  0
M  END
>  <CHROM.1>
68.62806983,108.01794943,167.16414430,27.22331207,9.78603617,14.05591726
-1.47793463,0.20464698,2.30177319

>  <Name>
2fcx_lig

>  <RI>
1.15031e+07

>  <Rbt.Current_Directory>
/home/itssahil/PROJECTS/Mol_Feturizer/New_Systems/rnas/2fcx

>  <Rbt.Executable>
rbdock ($Id: //depot/dev/client3/rdock/2013.1/src/exe/rbdock.cxx#4 $)

>  <Rbt.Library>
libRbt.so (2013.1, Build901 2013/11/27)

>  <Rbt.Parameter_File>
/export/apps/rDock/src/rDock_2013.1_src/data/scripts/dock_solv.prm

>  <Rbt.Receptor>
prm/pocket_docking_8.prm

>  <SCORE>
-13.9669

>  <SCORE.INTER>
-16.5838

>  <SCORE.INTER.CONST>
1

>  <SCORE.INTER.POLAR>
-1.81094

>  <SCORE.INTER.ROT>
3

>  <SCORE.INTER.SOLV>
9.24635

>  <SCORE.INTER.VDW>
-13.7015

>  <SCORE.INTER.norm>
-0.75381

>  <SCORE.INTRA>
2.61693

>  <SCORE.INTRA.DIHEDRAL>
2.57463

>  <SCORE.INTRA.DIHEDRAL.0>
4.88619

>  <SCORE.INTRA.POLAR>
0

>  <SCORE.INTRA.POLAR.0>
0

>  <SCORE.INTRA.REPUL>
0

>  <SCORE.INTRA.REPUL.0>
0

>  <SCORE.INTRA.SOLV>
1.54314

>  <SCORE.INTRA.SOLV.lig_0>
-73.8187

>  <SCORE.INTRA.VDW>
0.558052

>  <SCORE.INTRA.VDW.0>
-1.32335

>  <SCORE.INTRA.norm>
0.118952

>  <SCORE.RESTR>
0

>  <SCORE.RESTR.CAVITY>
0

>  <SCORE.RESTR.norm>
0

>  <SCORE.SYSTEM>
0

>  <SCORE.SYSTEM.CONST>
0

>  <SCORE.SYSTEM.DIHEDRAL>
0

>  <SCORE.SYSTEM.SOLV>
0

>  <SCORE.SYSTEM.norm>
0

>  <SCORE.heavy>
22

>  <SCORE.norm>
-0.634858

>  <RMSD>
1.985

$$$$
2fcx_lig
 OpenBabel11021811433D
libRbt.so/2013.1/901 2013/11/27
 22 23  0  0  0  0  0  0  0  0999 V2000
   30.6949   14.2864   12.1633 N   0  0  0  0  0  0  0  0  0  0  0  0
   29.3886    9.5571   12.2081 N   0  0  0  0  0  0  0  0  0  0  0  0
   30.4741    5.8651   17.1977 N   0  0  0  0  0  0  0  0  0  0  0  0
   28.8003   12.2879   16.1926 O   0  0  0  0  0  0  0  0  0  0  0  0
   29.6527   12.0493   15.0692 C   0  0  2  0  0  0  0  0  0  0  0  0
   26.4991   10.0915   14.1346 N   0  0  0  0  0  0  0  0  0  0  0  0
   30.3960   14.3306   15.0338 O   0  0  0  0  0  0  0  0  0  0  0  0
   29.7762   13.3217   14.2277 C   0  0  1  0  0  0  0  0  0  0  0  0
   29.1916    9.6583   15.0309 O   0  0  0  0  0  0  0  0  0  0  0  0
   30.6282   13.0670   12.9821 C   0  0  1  0  0  0  0  0  0  0  0  0
   28.8262    7.3449   15.1114 O   0  0  0  0  0  0  0  0  0  0  0  0
   30.0312   11.9313   12.1442 C   0  0  0  0  0  0  0  0  0  0  0  0
   26.8797    7.5503   18.2499 O   0  0  0  0  0  0  0  0  0  0  0  0
   29.9620   10.6591   12.9936 C   0  0  1  0  0  0  0  0  0  0  0  0
   25.2240    8.9923   16.4584 O   0  0  0  0  0  0  0  0  0  0  0  0
   29.1173   10.8656   14.2544 C   0  0  2  0  0  0  0  0  0  0  0  0
   28.4198    8.5752   14.4841 C   0  0  1  0  0  0  0  0  0  0  0  0
   28.5814    7.3010   16.5316 C   0  0  2  0  0  0  0  0  0  0  0  0
   29.0088    5.9489   17.1069 C   0  0  0  0  0  0  0  0  0  0  0  0
   27.0950    7.5062   16.8360 C   0  0  2  0  0  0  0  0  0  0  0  0
   26.6249    8.8294   16.2294 C   0  0  1  0  0  0  0  0  0  0  0  0
   26.9252    8.8170   14.7282 C   0  0  1  0  0  0  0  0  0  0  0  0
  5  4  1  1  0  0  0
  5  8  1  0  0  0  0
  5 16  1  0  0  0  0
  8  7  1  1  0  0  0
  8 10  1  0  0  0  0
 10  1  1  6  0  0  0
 10 12  1  0  0  0  0
 11 18  1  0  0  0  0
 12 14  1  0  0  0  0
 14  2  1  6  0  0  0
 14 16  1  0  0  0  0
 16  9  1  1  0  0  0
 17  9  1  1  0  0  0
 17 11  1  0  0  0  0
 17 22  1  0  0  0  0
 18 19  1  6  0  0  0
 18 20  1  0  0  0  0
 19  3  1  0  0  0  0
 20 13  1  1  0  0  0
 20 21  1  0  0  0  0
 21 15  1  6  0  0  0
 21 22  1  0  0  0  0
 22  6  1  1  0  0  0
M  END
>  <CHROM.1>
165.52214587,165.11076591,74.81153483,28.71826906,9.94521168,15.01576530
-1.14980155,-0.62866544,2.87751587

>  <Name>
2fcx_lig

>  <RI>
1.21945e+07

>  <Rbt.Current_Directory>
/home/itssahil/PROJECTS/Mol_Feturizer/New_Systems/rnas/2fcx

>  <Rbt.Executable>
rbdock ($Id: //depot/dev/client3/rdock/2013.1/src/exe/rbdock.cxx#4 $)

>  <Rbt.Library>
libRbt.so (2013.1, Build901 2013/11/27)

>  <Rbt.Parameter_File>
/export/apps/rDock/src/rDock_2013.1_src/data/scripts/dock_solv.prm

>  <Rbt.Receptor>
prm/pocket_docking_3.prm

>  <SCORE>
-11.0383

>  <SCORE.INTER>
-12.8704

>  <SCORE.INTER.CONST>
1

>  <SCORE.INTER.POLAR>
-1.03168

>  <SCORE.INTER.ROT>
3

>  <SCORE.INTER.SOLV>
14.169

>  <SCORE.INTER.VDW>
-15.4644

>  <SCORE.INTER.norm>
-0.58502

>  <SCORE.INTRA>
1.83211

>  <SCORE.INTRA.DIHEDRAL>
-2.10683

>  <SCORE.INTRA.DIHEDRAL.0>
4.88619

>  <SCORE.INTRA.POLAR>
0

>  <SCORE.INTRA.POLAR.0>
0

>  <SCORE.INTRA.REPUL>
0

>  <SCORE.INTRA.REPUL.0>
0

>  <SCORE.INTRA.SOLV>
3.24667

>  <SCORE.INTRA.SOLV.lig_0>
-73.8187

>  <SCORE.INTRA.VDW>
1.26219

>  <SCORE.INTRA.VDW.0>
-1.32335

>  <SCORE.INTRA.norm>
0.0832779

>  <SCORE.RESTR>
0

>  <SCORE.RESTR.CAVITY>
0

>  <SCORE.RESTR.norm>
0

>  <SCORE.SYSTEM>
0

>  <SCORE.SYSTEM.CONST>
0

>  <SCORE.SYSTEM.DIHEDRAL>
0

>  <SCORE.SYSTEM.SOLV>
0

>  <SCORE.SYSTEM.norm>
0

>  <SCORE.heavy>
22

>  <SCORE.norm>
-0.501742

>  <RMSD>
2.093

$$$$
2fcx_lig
 OpenBabel11021811433D
libRbt.so/2013.1/901 2013/11/27
 22 23  0  0  0  0  0  0  0  0999 V2000
   30.2916   14.2613   11.9924 N   0  0  0  0  0  0  0  0  0  0  0  0
   28.9381    9.5464   12.1022 N   0  0  0  0  0  0  0  0  0  0  0  0
   29.4182    5.8021   18.3057 N   0  0  0  0  0  0  0  0  0  0  0  0
   28.8598   12.2021   16.1791 O   0  0  0  0  0  0  0  0  0  0  0  0
   29.5705   11.9772   14.9585 C   0  0  2  0  0  0  0  0  0  0  0  0
   26.2968    9.9848   14.3321 N   0  0  0  0  0  0  0  0  0  0  0  0
   30.3342   14.2506   14.8785 O   0  0  0  0  0  0  0  0  0  0  0  0
   29.6104   13.2649   14.1324 C   0  0  1  0  0  0  0  0  0  0  0  0
   29.0769    9.5925   14.9300 O   0  0  0  0  0  0  0  0  0  0  0  0
   30.3060   13.0264   12.7902 C   0  0  1  0  0  0  0  0  0  0  0  0
   28.7778    7.2683   14.9473 O   0  0  0  0  0  0  0  0  0  0  0  0
   29.5995   11.9143   12.0076 C   0  0  0  0  0  0  0  0  0  0  0  0
   27.1604    7.2910   18.2737 O   0  0  0  0  0  0  0  0  0  0  0  0
   29.6145   10.6260   12.8351 C   0  0  1  0  0  0  0  0  0  0  0  0
   25.2947    8.7567   16.7241 O   0  0  0  0  0  0  0  0  0  0  0  0
   28.9273   10.8160   14.1906 C   0  0  2  0  0  0  0  0  0  0  0  0
   28.2793    8.5109   14.4183 C   0  0  1  0  0  0  0  0  0  0  0  0
   28.6816    7.1600   16.3818 C   0  0  2  0  0  0  0  0  0  0  0  0
   29.1985    5.7984   16.8517 C   0  0  0  0  0  0  0  0  0  0  0  0
   27.2299    7.3104   16.8446 C   0  0  2  0  0  0  0  0  0  0  0  0
   26.6681    8.6431   16.3468 C   0  0  1  0  0  0  0  0  0  0  0  0
   26.8125    8.7000   14.8237 C   0  0  1  0  0  0  0  0  0  0  0  0
  5  4  1  1  0  0  0
  5  8  1  0  0  0  0
  5 16  1  0  0  0  0
  8  7  1  1  0  0  0
  8 10  1  0  0  0  0
 10  1  1  6  0  0  0
 10 12  1  0  0  0  0
 11 18  1  0  0  0  0
 12 14  1  0  0  0  0
 14  2  1  6  0  0  0
 14 16  1  0  0  0  0
 16  9  1  1  0  0  0
 17  9  1  1  0  0  0
 17 11  1  0  0  0  0
 17 22  1  0  0  0  0
 18 19  1  6  0  0  0
 18 20  1  0  0  0  0
 19  3  1  0  0  0  0
 20 13  1  1  0  0  0
 20 21  1  0  0  0  0
 21 15  1  6  0  0  0
 21 22  1  0  0  0  0
 22  6  1  1  0  0  0
M  END
>  <CHROM.1>
168.32017087,163.16997251,165.91091433,28.57615549,9.84680832,15.01126341
-0.83207561,-1.13206808,-3.00838614

>  <Name>
2fcx_lig

>  <RI>
1.21945e+07

>  <Rbt.Current_Directory>
/home/itssahil/PROJECTS/Mol_Feturizer/New_Systems/rnas/2fcx

>  <Rbt.Executable>
rbdock ($Id: //depot/dev/client3/rdock/2013.1/src/exe/rbdock.cxx#4 $)

>  <Rbt.Library>
libRbt.so (2013.1, Build901 2013/11/27)

>  <Rbt.Parameter_File>
/export/apps/rDock/src/rDock_2013.1_src/data/scripts/dock_solv.prm

>  <Rbt.Receptor>
prm/pocket_docking_3.prm

>  <SCORE>
-10.7945

>  <SCORE.INTER>
-13.515

>  <SCORE.INTER.CONST>
1

>  <SCORE.INTER.POLAR>
-0.916515

>  <SCORE.INTER.ROT>
3

>  <SCORE.INTER.SOLV>
11.8474

>  <SCORE.INTER.VDW>
-15.5041

>  <SCORE.INTER.norm>
-0.614319

>  <SCORE.INTRA>
2.72051

>  <SCORE.INTRA.DIHEDRAL>
-2.22434

>  <SCORE.INTRA.DIHEDRAL.0>
4.88619

>  <SCORE.INTRA.POLAR>
0

>  <SCORE.INTRA.POLAR.0>
0

>  <SCORE.INTRA.REPUL>
0

>  <SCORE.INTRA.REPUL.0>
0

>  <SCORE.INTRA.SOLV>
4.37063

>  <SCORE.INTRA.SOLV.lig_0>
-73.8187

>  <SCORE.INTRA.VDW>
1.64737

>  <SCORE.INTRA.VDW.0>
-1.32335

>  <SCORE.INTRA.norm>
0.123659

>  <SCORE.RESTR>
0

>  <SCORE.RESTR.CAVITY>
0

>  <SCORE.RESTR.norm>
0

>  <SCORE.SYSTEM>
0

>  <SCORE.SYSTEM.CONST>
0

>  <SCORE.SYSTEM.DIHEDRAL>
0

>  <SCORE.SYSTEM.SOLV>
0

>  <SCORE.SYSTEM.norm>
0

>  <SCORE.heavy>
22

>  <SCORE.norm>
-0.490659

>  <RMSD>
2.145

$$$$
2fcx_lig
 OpenBabel11021811433D
libRbt.so/2013.1/901 2013/11/27
 22 23  0  0  0  0  0  0  0  0999 V2000
   32.0546   14.9126   14.2174 N   0  0  0  0  0  0  0  0  0  0  0  0
   28.9930   11.6401   16.2154 N   0  0  0  0  0  0  0  0  0  0  0  0
   28.5423    7.3812   17.6438 N   0  0  0  0  0  0  0  0  0  0  0  0
   30.5505   11.0486   11.6433 O   0  0  0  0  0  0  0  0  0  0  0  0
   30.1553   12.0218   12.6140 C   0  0  2  0  0  0  0  0  0  0  0  0
   26.8042    9.3850   11.6549 N   0  0  0  0  0  0  0  0  0  0  0  0
   31.5727   13.6976   11.6440 O   0  0  0  0  0  0  0  0  0  0  0  0
   31.3024   13.0028   12.8672 C   0  0  1  0  0  0  0  0  0  0  0  0
   28.5115   10.5510   13.6464 O   0  0  0  0  0  0  0  0  0  0  0  0
   30.9237   14.0104   13.9551 C   0  0  1  0  0  0  0  0  0  0  0  0
   29.3876    8.4428   14.1751 O   0  0  0  0  0  0  0  0  0  0  0  0
   30.5471   13.2864   15.2521 C   0  0  0  0  0  0  0  0  0  0  0  0
   26.3793    7.4383   16.0785 O   0  0  0  0  0  0  0  0  0  0  0  0
   29.3681   12.3471   14.9828 C   0  0  1  0  0  0  0  0  0  0  0  0
   25.3311    7.7097   13.4597 O   0  0  0  0  0  0  0  0  0  0  0  0
   29.7008   11.3179   13.8984 C   0  0  2  0  0  0  0  0  0  0  0  0
   28.7756    9.2320   13.1383 C   0  0  1  0  0  0  0  0  0  0  0  0
   28.5494    8.2394   15.3306 C   0  0  2  0  0  0  0  0  0  0  0  0
   29.2633    7.3633   16.3623 C   0  0  0  0  0  0  0  0  0  0  0  0
   27.2381    7.5525   14.9396 C   0  0  2  0  0  0  0  0  0  0  0  0
   26.5235    8.3811   13.8708 C   0  0  1  0  0  0  0  0  0  0  0  0
   27.4690    8.5715   12.6818 C   0  0  1  0  0  0  0  0  0  0  0  0
  5  4  1  6  0  0  0
  5  8  1  0  0  0  0
  5 16  1  0  0  0  0
  8  7  1  6  0  0  0
  8 10  1  0  0  0  0
 10  1  1  1  0  0  0
 10 12  1  0  0  0  0
 11 18  1  0  0  0  0
 12 14  1  0  0  0  0
 14  2  1  1  0  0  0
 14 16  1  0  0  0  0
 16  9  1  6  0  0  0
 17  9  1  1  0  0  0
 17 11  1  0  0  0  0
 17 22  1  0  0  0  0
 18 19  1  1  0  0  0
 18 20  1  0  0  0  0
 19  3  1  0  0  0  0
 20 13  1  1  0  0  0
 20 21  1  0  0  0  0
 21 15  1  6  0  0  0
 21 22  1  0  0  0  0
 22  6  1  6  0  0  0
M  END
>  <CHROM.1>
85.57325080,68.61987495,168.26556432,28.98297035,10.31809406,14.08672080
-0.49293167,0.89723111,1.90116336

>  <Name>
2fcx_lig

>  <RI>
0

>  <Rbt.Current_Directory>
/home/itssahil/PROJECTS/Mol_Feturizer/New_Systems/rnas/2fcx

>  <Rbt.Executable>
rbdock ($Id: //depot/dev/client3/rdock/2013.1/src/exe/rbdock.cxx#4 $)

>  <Rbt.Library>
libRbt.so (2013.1, Build901 2013/11/27)

>  <Rbt.Parameter_File>
/export/apps/rDock/src/rDock_2013.1_src/data/scripts/dock_solv.prm

>  <Rbt.Receptor>
prm/pocket_docking_6.prm

>  <SCORE>
-7.99508

>  <SCORE.INTER>
-7.74691

>  <SCORE.INTER.CONST>
1

>  <SCORE.INTER.POLAR>
-0.313118

>  <SCORE.INTER.ROT>
3

>  <SCORE.INTER.SOLV>
9.46547

>  <SCORE.INTER.VDW>
-12.876

>  <SCORE.INTER.norm>
-0.352132

>  <SCORE.INTRA>
-0.248165

>  <SCORE.INTRA.DIHEDRAL>
-1.25687

>  <SCORE.INTRA.DIHEDRAL.0>
4.88619

>  <SCORE.INTRA.POLAR>
0

>  <SCORE.INTRA.POLAR.0>
0

>  <SCORE.INTRA.REPUL>
0

>  <SCORE.INTRA.REPUL.0>
0

>  <SCORE.INTRA.SOLV>
1.15579

>  <SCORE.INTRA.SOLV.lig_0>
-73.8187

>  <SCORE.INTRA.VDW>
-0.197625

>  <SCORE.INTRA.VDW.0>
-1.32335

>  <SCORE.INTRA.norm>
-0.0112802

>  <SCORE.RESTR>
0

>  <SCORE.RESTR.CAVITY>
0

>  <SCORE.RESTR.norm>
0

>  <SCORE.SYSTEM>
0

>  <SCORE.SYSTEM.CONST>
0

>  <SCORE.SYSTEM.DIHEDRAL>
0

>  <SCORE.SYSTEM.SOLV>
0

>  <SCORE.SYSTEM.norm>
0

>  <SCORE.heavy>
22

>  <SCORE.norm>
-0.363413

>  <RMSD>
2.214

$$$$
2fcx_lig
 OpenBabel11021811433D
libRbt.so/2013.1/901 2013/11/27
 22 23  0  0  0  0  0  0  0  0999 V2000
   28.9971   11.8633    9.3115 N   0  0  0  0  0  0  0  0  0  0  0  0
   29.7519   10.9426   14.0715 N   0  0  0  0  0  0  0  0  0  0  0  0
   29.3102    6.8512   18.1728 N   0  0  0  0  0  0  0  0  0  0  0  0
   26.6220    8.2205   11.5270 O   0  0  0  0  0  0  0  0  0  0  0  0
   27.1301    9.5468   11.6955 C   0  0  2  0  0  0  0  0  0  0  0  0
   24.6007    9.0163   14.1628 N   0  0  0  0  0  0  0  0  0  0  0  0
   26.7179   10.0942    9.3959 O   0  0  0  0  0  0  0  0  0  0  0  0
   27.7515   10.0384   10.3861 C   0  0  1  0  0  0  0  0  0  0  0  0
   27.4581    9.2825   14.0942 O   0  0  0  0  0  0  0  0  0  0  0  0
   28.3639   11.4294   10.5656 C   0  0  1  0  0  0  0  0  0  0  0  0
   27.7135    7.0678   14.8164 O   0  0  0  0  0  0  0  0  0  0  0  0
   29.4151   11.4154   11.6806 C   0  0  0  0  0  0  0  0  0  0  0  0
   26.8403    7.8876   18.3159 O   0  0  0  0  0  0  0  0  0  0  0  0
   28.7584   10.9656   12.9887 C   0  0  1  0  0  0  0  0  0  0  0  0
   24.4133    8.4681   16.9732 O   0  0  0  0  0  0  0  0  0  0  0  0
   28.1302    9.5750   12.8578 C   0  0  2  0  0  0  0  0  0  0  0  0
   26.8454    7.9819   14.1213 C   0  0  1  0  0  0  0  0  0  0  0  0
   27.9365    7.4068   16.1999 C   0  0  2  0  0  0  0  0  0  0  0  0
   28.8377    6.3657   16.8676 C   0  0  0  0  0  0  0  0  0  0  0  0
   26.6135    7.4629   16.9684 C   0  0  2  0  0  0  0  0  0  0  0  0
   25.6705    8.4611   16.2944 C   0  0  1  0  0  0  0  0  0  0  0  0
   25.4874    8.0536   14.8301 C   0  0  1  0  0  0  0  0  0  0  0  0
  5  4  1  6  0  0  0
  5  8  1  0  0  0  0
  5 16  1  0  0  0  0
  8  7  1  6  0  0  0
  8 10  1  0  0  0  0
 10  1  1  6  0  0  0
 10 12  1  0  0  0  0
 11 18  1  0  0  0  0
 12 14  1  0  0  0  0
 14  2  1  1  0  0  0
 14 16  1  0  0  0  0
 16  9  1  1  0  0  0
 17  9  1  1  0  0  0
 17 11  1  0  0  0  0
 17 22  1  0  0  0  0
 18 19  1  1  0  0  0
 18 20  1  0  0  0  0
 19  3  1  0  0  0  0
 20 13  1  1  0  0  0
 20 21  1  0  0  0  0
 21 15  1  1  0  0  0
 21 22  1  0  0  0  0
 22  6  1  6  0  0  0
M  END
>  <CHROM.1>
61.00595844,98.77423532,167.44301057,27.40014698,8.99581896,13.94021561,-1.41124253
0.22136613,2.00144420

>  <Name>
2fcx_lig

>  <RI>
1.55453e+07

>  <Rbt.Current_Directory>
/home/itssahil/PROJECTS/Mol_Feturizer/New_Systems/rnas/2fcx

>  <Rbt.Executable>
rbdock ($Id: //depot/dev/client3/rdock/2013.1/src/exe/rbdock.cxx#4 $)

>  <Rbt.Library>
libRbt.so (2013.1, Build901 2013/11/27)

>  <Rbt.Parameter_File>
/export/apps/rDock/src/rDock_2013.1_src/data/scripts/dock_solv.prm

>  <Rbt.Receptor>
prm/pocket_docking_4.prm

>  <SCORE>
-14.0553

>  <SCORE.INTER>
-16.3372

>  <SCORE.INTER.CONST>
1

>  <SCORE.INTER.POLAR>
-1.89189

>  <SCORE.INTER.ROT>
3

>  <SCORE.INTER.SOLV>
14.7803

>  <SCORE.INTER.VDW>
-15.112

>  <SCORE.INTER.norm>
-0.742601

>  <SCORE.INTRA>
2.28196

>  <SCORE.INTRA.DIHEDRAL>
0.877095

>  <SCORE.INTRA.DIHEDRAL.0>
4.88619

>  <SCORE.INTRA.POLAR>
0

>  <SCORE.INTRA.POLAR.0>
0

>  <SCORE.INTRA.REPUL>
0

>  <SCORE.INTRA.REPUL.0>
0

>  <SCORE.INTRA.SOLV>
1.01615

>  <SCORE.INTRA.SOLV.lig_0>
-73.8187

>  <SCORE.INTRA.VDW>
1.33534

>  <SCORE.INTRA.VDW.0>
-1.32335

>  <SCORE.INTRA.norm>
0.103725

>  <SCORE.RESTR>
0

>  <SCORE.RESTR.CAVITY>
0

>  <SCORE.RESTR.norm>
0

>  <SCORE.SYSTEM>
0

>  <SCORE.SYSTEM.CONST>
0

>  <SCORE.SYSTEM.DIHEDRAL>
0

>  <SCORE.SYSTEM.SOLV>
0

>  <SCORE.SYSTEM.norm>
0

>  <SCORE.heavy>
22

>  <SCORE.norm>
-0.638876

>  <RMSD>
2.218

$$$$
2fcx_lig
 OpenBabel11021811433D
libRbt.so/2013.1/901 2013/11/27
 22 23  0  0  0  0  0  0  0  0999 V2000
   29.3746   12.8658   10.3260 N   0  0  0  0  0  0  0  0  0  0  0  0
   27.7381    8.5042   11.8666 N   0  0  0  0  0  0  0  0  0  0  0  0
   29.5509    6.0327   18.2550 N   0  0  0  0  0  0  0  0  0  0  0  0
   28.4784   12.0990   15.0618 O   0  0  0  0  0  0  0  0  0  0  0  0
   28.9727   11.4978   13.8619 C   0  0  2  0  0  0  0  0  0  0  0  0
   25.4592    9.3310   14.3123 N   0  0  0  0  0  0  0  0  0  0  0  0
   29.8669   13.5822   13.0784 O   0  0  0  0  0  0  0  0  0  0  0  0
   28.9703   12.5224   12.7250 C   0  0  1  0  0  0  0  0  0  0  0  0
   28.3200    9.2502   14.5354 O   0  0  0  0  0  0  0  0  0  0  0  0
   29.4297   11.8790   11.4146 C   0  0  1  0  0  0  0  0  0  0  0  0
   28.2584    6.9350   14.8924 O   0  0  0  0  0  0  0  0  0  0  0  0
   28.5357   10.6866   11.0576 C   0  0  0  0  0  0  0  0  0  0  0  0
   27.1160    7.2940   18.3920 O   0  0  0  0  0  0  0  0  0  0  0  0
   28.5924    9.6560   12.1887 C   0  0  1  0  0  0  0  0  0  0  0  0
   24.9199    8.3739   16.9632 O   0  0  0  0  0  0  0  0  0  0  0  0
   28.1400   10.2552   13.5236 C   0  0  2  0  0  0  0  0  0  0  0  0
   27.5715    8.0473   14.2897 C   0  0  1  0  0  0  0  0  0  0  0  0
   28.3702    7.0214   16.3273 C   0  0  2  0  0  0  0  0  0  0  0  0
   29.0791    5.7849   16.8845 C   0  0  0  0  0  0  0  0  0  0  0  0
   26.9875    7.1184   16.9777 C   0  0  2  0  0  0  0  0  0  0  0  0
   26.2334    8.3189   16.4035 C   0  0  1  0  0  0  0  0  0  0  0  0
   26.1622    8.1732   14.8811 C   0  0  1  0  0  0  0  0  0  0  0  0
  5  4  1  1  0  0  0
  5  8  1  0  0  0  0
  5 16  1  0  0  0  0
  8  7  1  1  0  0  0
  8 10  1  0  0  0  0
 10  1  1  6  0  0  0
 10 12  1  0  0  0  0
 11 18  1  0  0  0  0
 12 14  1  0  0  0  0
 14  2  1  6  0  0  0
 14 16  1  0  0  0  0
 16  9  1  1  0  0  0
 17  9  1  1  0  0  0
 17 11  1  0  0  0  0
 17 22  1  0  0  0  0
 18 19  1  1  0  0  0
 18 20  1  0  0  0  0
 19  3  1  0  0  0  0
 20 13  1  1  0  0  0
 20 21  1  0  0  0  0
 21 15  1  1  0  0  0
 21 22  1  0  0  0  0
 22  6  1  6  0  0  0
M  END
>  <CHROM.1>
-179.89067589,151.88551748,163.18552498,28.00097318,9.33466223,14.51035776
-1.25307204,-0.79340693,2.58838898

>  <Name>
2fcx_lig

>  <RI>
0

>  <Rbt.Current_Directory>
/home/itssahil/PROJECTS/Mol_Feturizer/New_Systems/rnas/2fcx

>  <Rbt.Executable>
rbdock ($Id: //depot/dev/client3/rdock/2013.1/src/exe/rbdock.cxx#4 $)

>  <Rbt.Library>
libRbt.so (2013.1, Build901 2013/11/27)

>  <Rbt.Parameter_File>
/export/apps/rDock/src/rDock_2013.1_src/data/scripts/dock_solv.prm

>  <Rbt.Receptor>
prm/pocket_docking_2.prm

>  <SCORE>
-8.96052

>  <SCORE.INTER>
-13.953

>  <SCORE.INTER.CONST>
1

>  <SCORE.INTER.POLAR>
-1.23096

>  <SCORE.INTER.ROT>
3

>  <SCORE.INTER.SOLV>
15.4641

>  <SCORE.INTER.VDW>
-15.9535

>  <SCORE.INTER.norm>
-0.634229

>  <SCORE.INTRA>
4.97449

>  <SCORE.INTRA.DIHEDRAL>
-0.669211

>  <SCORE.INTRA.DIHEDRAL.0>
4.88619

>  <SCORE.INTRA.POLAR>
0

>  <SCORE.INTRA.POLAR.0>
0

>  <SCORE.INTRA.REPUL>
0

>  <SCORE.INTRA.REPUL.0>
0

>  <SCORE.INTRA.SOLV>
3.94213

>  <SCORE.INTRA.SOLV.lig_0>
-73.8187

>  <SCORE.INTRA.VDW>
3.33803

>  <SCORE.INTRA.VDW.0>
-1.32335

>  <SCORE.INTRA.norm>
0.226113

>  <SCORE.RESTR>
0.0180272

>  <SCORE.RESTR.CAVITY>
0.0180272

>  <SCORE.RESTR.norm>
0.000819417

>  <SCORE.SYSTEM>
0

>  <SCORE.SYSTEM.CONST>
0

>  <SCORE.SYSTEM.DIHEDRAL>
0

>  <SCORE.SYSTEM.SOLV>
0

>  <SCORE.SYSTEM.norm>
0

>  <SCORE.heavy>
22

>  <SCORE.norm>
-0.407296

>  <RMSD>
2.274

$$$$
2fcx_lig
 OpenBabel11021811433D
libRbt.so/2013.1/901 2013/11/27
 22 23  0  0  0  0  0  0  0  0999 V2000
   29.1020   12.9472   10.3123 N   0  0  0  0  0  0  0  0  0  0  0  0
   27.7308    8.4840   11.8204 N   0  0  0  0  0  0  0  0  0  0  0  0
   30.1800    5.9196   17.1772 N   0  0  0  0  0  0  0  0  0  0  0  0
   28.6111   11.9943   15.0736 O   0  0  0  0  0  0  0  0  0  0  0  0
   29.0266   11.4503   13.8178 C   0  0  2  0  0  0  0  0  0  0  0  0
   25.6824    9.5290   14.0549 N   0  0  0  0  0  0  0  0  0  0  0  0
   29.7898   13.5886   13.0412 O   0  0  0  0  0  0  0  0  0  0  0  0
   28.9014   12.5112   12.7219 C   0  0  1  0  0  0  0  0  0  0  0  0
   28.5003    9.1608   14.4600 O   0  0  0  0  0  0  0  0  0  0  0  0
   29.2746   11.9275   11.3573 C   0  0  1  0  0  0  0  0  0  0  0  0
   28.1407    6.9617   15.1858 O   0  0  0  0  0  0  0  0  0  0  0  0
   28.3928   10.7178   11.0295 C   0  0  0  0  0  0  0  0  0  0  0  0
   26.9108    8.0361   18.5046 O   0  0  0  0  0  0  0  0  0  0  0  0
   28.5717    9.6529   12.1152 C   0  0  1  0  0  0  0  0  0  0  0  0
   24.9233    9.1023   16.7891 O   0  0  0  0  0  0  0  0  0  0  0  0
   28.2088   10.1919   13.5020 C   0  0  2  0  0  0  0  0  0  0  0  0
   27.6203    8.0271   14.3694 C   0  0  1  0  0  0  0  0  0  0  0  0
   28.2043    7.2764   16.5915 C   0  0  2  0  0  0  0  0  0  0  0  0
   28.7330    6.0793   17.3847 C   0  0  0  0  0  0  0  0  0  0  0  0
   26.8189    7.6395   17.1328 C   0  0  2  0  0  0  0  0  0  0  0  0
   26.2416    8.8037   16.3260 C   0  0  1  0  0  0  0  0  0  0  0  0
   26.2144    8.4116   14.8464 C   0  0  1  0  0  0  0  0  0  0  0  0
  5  4  1  1  0  0  0
  5  8  1  0  0  0  0
  5 16  1  0  0  0  0
  8  7  1  1  0  0  0
  8 10  1  0  0  0  0
 10  1  1  6  0  0  0
 10 12  1  0  0  0  0
 11 18  1  0  0  0  0
 12 14  1  0  0  0  0
 14  2  1  6  0  0  0
 14 16  1  0  0  0  0
 16  9  1  1  0  0  0
 17  9  1  1  0  0  0
 17 11  1  0  0  0  0
 17 22  1  0  0  0  0
 18 19  1  1  0  0  0
 18 20  1  0  0  0  0
 19  3  1  0  0  0  0
 20 13  1  1  0  0  0
 20 21  1  0  0  0  0
 21 15  1  1  0  0  0
 21 22  1  0  0  0  0
 22  6  1  6  0  0  0
M  END
>  <CHROM.1>
170.42787033,169.42738078,74.05449859,27.98582387,9.48235590,14.48333747
-1.26488503,-0.81974624,2.55185706

>  <Name>
2fcx_lig

>  <RI>
0

>  <Rbt.Current_Directory>
/home/itssahil/PROJECTS/Mol_Feturizer/New_Systems/rnas/2fcx

>  <Rbt.Executable>
rbdock ($Id: //depot/dev/client3/rdock/2013.1/src/exe/rbdock.cxx#4 $)

>  <Rbt.Library>
libRbt.so (2013.1, Build901 2013/11/27)

>  <Rbt.Parameter_File>
/export/apps/rDock/src/rDock_2013.1_src/data/scripts/dock_solv.prm

>  <Rbt.Receptor>
prm/pocket_docking_2.prm

>  <SCORE>
-10.5583

>  <SCORE.INTER>
-13.0475

>  <SCORE.INTER.CONST>
1

>  <SCORE.INTER.POLAR>
-1.36595

>  <SCORE.INTER.ROT>
3

>  <SCORE.INTER.SOLV>
15.9165

>  <SCORE.INTER.VDW>
-15.0507

>  <SCORE.INTER.norm>
-0.59307

>  <SCORE.INTRA>
2.48565

>  <SCORE.INTRA.DIHEDRAL>
-3.22286

>  <SCORE.INTRA.DIHEDRAL.0>
4.88619

>  <SCORE.INTRA.POLAR>
0

>  <SCORE.INTRA.POLAR.0>
0

>  <SCORE.INTRA.REPUL>
0

>  <SCORE.INTRA.REPUL.0>
0

>  <SCORE.INTRA.SOLV>
3.83789

>  <SCORE.INTRA.SOLV.lig_0>
-73.8187

>  <SCORE.INTRA.VDW>
2.17814

>  <SCORE.INTRA.VDW.0>
-1.32335

>  <SCORE.INTRA.norm>
0.112984

>  <SCORE.RESTR>
0.00362564

>  <SCORE.RESTR.CAVITY>
0.00362564

>  <SCORE.RESTR.norm>
0.000164802

>  <SCORE.SYSTEM>
0

>  <SCORE.SYSTEM.CONST>
0

>  <SCORE.SYSTEM.DIHEDRAL>
0

>  <SCORE.SYSTEM.SOLV>
0

>  <SCORE.SYSTEM.norm>
0

>  <SCORE.heavy>
22

>  <SCORE.norm>
-0.479921

>  <RMSD>
2.285

$$$$
2fcx_lig
 OpenBabel11021811433D
libRbt.so/2013.1/901 2013/11/27
 22 23  0  0  0  0  0  0  0  0999 V2000
   30.7338   14.0889   11.3837 N   0  0  0  0  0  0  0  0  0  0  0  0
   28.9682   11.5695   15.2060 N   0  0  0  0  0  0  0  0  0  0  0  0
   28.7599    7.2156   15.1014 N   0  0  0  0  0  0  0  0  0  0  0  0
   26.9029   11.1176   10.8230 O   0  0  0  0  0  0  0  0  0  0  0  0
   27.5356   12.0402   11.7141 C   0  0  2  0  0  0  0  0  0  0  0  0
   23.8462   10.8490   13.0683 N   0  0  0  0  0  0  0  0  0  0  0  0
   28.3690   13.3652    9.8954 O   0  0  0  0  0  0  0  0  0  0  0  0
   28.7832   12.6319   11.0541 C   0  0  1  0  0  0  0  0  0  0  0  0
   26.6421   10.9654   13.7086 O   0  0  0  0  0  0  0  0  0  0  0  0
   29.5139   13.5690   12.0186 C   0  0  1  0  0  0  0  0  0  0  0  0
   26.7622    8.6254   13.7510 O   0  0  0  0  0  0  0  0  0  0  0  0
   29.8936   12.8282   13.3052 C   0  0  0  0  0  0  0  0  0  0  0  0
   25.1153    8.3920   17.0547 O   0  0  0  0  0  0  0  0  0  0  0  0
   28.6248   12.2869   13.9701 C   0  0  1  0  0  0  0  0  0  0  0  0
   23.0423    9.4854   15.4618 O   0  0  0  0  0  0  0  0  0  0  0  0
   27.8581   11.3414   13.0406 C   0  0  2  0  0  0  0  0  0  0  0  0
   26.0584    9.7538   13.1998 C   0  0  1  0  0  0  0  0  0  0  0  0
   26.6647    8.5160   15.1853 C   0  0  2  0  0  0  0  0  0  0  0  0
   27.4089    7.2734   15.6792 C   0  0  0  0  0  0  0  0  0  0  0  0
   25.2024    8.4093   15.6265 C   0  0  2  0  0  0  0  0  0  0  0  0
   24.4196    9.6152   15.1045 C   0  0  1  0  0  0  0  0  0  0  0  0
   24.5752    9.6819   13.5829 C   0  0  1  0  0  0  0  0  0  0  0  0
  5  4  1  6  0  0  0
  5  8  1  0  0  0  0
  5 16  1  0  0  0  0
  8  7  1  6  0  0  0
  8 10  1  0  0  0  0
 10  1  1  6  0  0  0
 10 12  1  0  0  0  0
 11 18  1  0  0  0  0
 12 14  1  0  0  0  0
 14  2  1  1  0  0  0
 14 16  1  0  0  0  0
 16  9  1  1  0  0  0
 17  9  1  1  0  0  0
 17 11  1  0  0  0  0
 17 22  1  0  0  0  0
 18 19  1  6  0  0  0
 18 20  1  0  0  0  0
 19  3  1  0  0  0  0
 20 13  1  1  0  0  0
 20 21  1  0  0  0  0
 21 15  1  6  0  0  0
 21 22  1  0  0  0  0
 22  6  1  1  0  0  0
M  END
>  <CHROM.1>
80.33208257,79.28892079,49.18585992,27.04532341,10.60247398,13.58711107,-0.98243919
0.15171322,2.32850261

>  <Name>
2fcx_lig

>  <RI>
0

>  <Rbt.Current_Directory>
/home/itssahil/PROJECTS/Mol_Feturizer/New_Systems/rnas/2fcx

>  <Rbt.Executable>
rbdock ($Id: //depot/dev/client3/rdock/2013.1/src/exe/rbdock.cxx#4 $)

>  <Rbt.Library>
libRbt.so (2013.1, Build901 2013/11/27)

>  <Rbt.Parameter_File>
/export/apps/rDock/src/rDock_2013.1_src/data/scripts/dock_solv.prm

>  <Rbt.Receptor>
prm/pocket_docking_6.prm

>  <SCORE>
-12.8873

>  <SCORE.INTER>
-12.2828

>  <SCORE.INTER.CONST>
1

>  <SCORE.INTER.POLAR>
-1.81047

>  <SCORE.INTER.ROT>
3

>  <SCORE.INTER.SOLV>
14.0521

>  <SCORE.INTER.VDW>
-12.4377

>  <SCORE.INTER.norm>
-0.55831

>  <SCORE.INTRA>
-0.604489

>  <SCORE.INTRA.DIHEDRAL>
-0.922152

>  <SCORE.INTRA.DIHEDRAL.0>
4.88619

>  <SCORE.INTRA.POLAR>
0

>  <SCORE.INTRA.POLAR.0>
0

>  <SCORE.INTRA.REPUL>
0

>  <SCORE.INTRA.REPUL.0>
0

>  <SCORE.INTRA.SOLV>
0.0893368

>  <SCORE.INTRA.SOLV.lig_0>
-73.8187

>  <SCORE.INTRA.VDW>
-0.188081

>  <SCORE.INTRA.VDW.0>
-1.32335

>  <SCORE.INTRA.norm>
-0.0274768

>  <SCORE.RESTR>
0

>  <SCORE.RESTR.CAVITY>
0

>  <SCORE.RESTR.norm>
0

>  <SCORE.SYSTEM>
0

>  <SCORE.SYSTEM.CONST>
0

>  <SCORE.SYSTEM.DIHEDRAL>
0

>  <SCORE.SYSTEM.SOLV>
0

>  <SCORE.SYSTEM.norm>
0

>  <SCORE.heavy>
22

>  <SCORE.norm>
-0.585787

>  <RMSD>
2.304

$$$$
2fcx_lig
 OpenBabel11021811433D
libRbt.so/2013.1/901 2013/11/27
 22 23  0  0  0  0  0  0  0  0999 V2000
   31.6249   14.6243   12.6197 N   0  0  0  0  0  0  0  0  0  0  0  0
   29.6356   10.8658   15.0673 N   0  0  0  0  0  0  0  0  0  0  0  0
   29.5901    8.4412   16.6489 N   0  0  0  0  0  0  0  0  0  0  0  0
   28.9877   11.2628   10.2608 O   0  0  0  0  0  0  0  0  0  0  0  0
   29.1007   12.0052   11.4780 C   0  0  2  0  0  0  0  0  0  0  0  0
   26.3579    8.7911   11.0095 N   0  0  0  0  0  0  0  0  0  0  0  0
   30.0082   13.9114   10.3374 O   0  0  0  0  0  0  0  0  0  0  0  0
   30.2792   12.9776   11.3894 C   0  0  1  0  0  0  0  0  0  0  0  0
   28.0260   10.2754   12.8137 O   0  0  0  0  0  0  0  0  0  0  0  0
   30.4601   13.7316   12.7088 C   0  0  1  0  0  0  0  0  0  0  0  0
   28.7005    8.2949   13.8695 O   0  0  0  0  0  0  0  0  0  0  0  0
   30.6673   12.7492   13.8665 C   0  0  0  0  0  0  0  0  0  0  0  0
   25.5120    7.9442   15.7112 O   0  0  0  0  0  0  0  0  0  0  0  0
   29.4548   11.8190   13.9633 C   0  0  1  0  0  0  0  0  0  0  0  0
   24.6505    7.6707   13.0254 O   0  0  0  0  0  0  0  0  0  0  0  0
   29.2333   11.0407   12.6629 C   0  0  2  0  0  0  0  0  0  0  0  0
   28.2168    8.8610   12.6375 C   0  0  1  0  0  0  0  0  0  0  0  0
   27.7798    8.4152   14.9725 C   0  0  2  0  0  0  0  0  0  0  0  0
   28.3585    7.7572   16.2271 C   0  0  0  0  0  0  0  0  0  0  0  0
   26.4452    7.7397   14.6458 C   0  0  2  0  0  0  0  0  0  0  0  0
   25.8644    8.3432   13.3659 C   0  0  1  0  0  0  0  0  0  0  0  0
   26.8929    8.1959   12.2415 C   0  0  1  0  0  0  0  0  0  0  0  0
  5  4  1  6  0  0  0
  5  8  1  0  0  0  0
  5 16  1  0  0  0  0
  8  7  1  6  0  0  0
  8 10  1  0  0  0  0
 10  1  1  6  0  0  0
 10 12  1  0  0  0  0
 11 18  1  0  0  0  0
 12 14  1  0  0  0  0
 14  2  1  1  0  0  0
 14 16  1  0  0  0  0
 16  9  1  1  0  0  0
 17  9  1  1  0  0  0
 17 11  1  0  0  0  0
 17 22  1  0  0  0  0
 18 19  1  1  0  0  0
 18 20  1  0  0  0  0
 19  3  1  0  0  0  0
 20 13  1  1  0  0  0
 20 21  1  0  0  0  0
 21 15  1  6  0  0  0
 21 22  1  0  0  0  0
 22  6  1  6  0  0  0
M  END
>  <CHROM.1>
117.54683002,82.47472274,62.88860312,28.41925630,10.24405503,13.23663521
-0.74273650,0.75245217,2.07173369

>  <Name>
2fcx_lig

>  <RI>
3.23342e+07

>  <Rbt.Current_Directory>
/home/itssahil/PROJECTS/Mol_Feturizer/New_Systems/rnas/2fcx

>  <Rbt.Executable>
rbdock ($Id: //depot/dev/client3/rdock/2013.1/src/exe/rbdock.cxx#4 $)

>  <Rbt.Library>
libRbt.so (2013.1, Build901 2013/11/27)

>  <Rbt.Parameter_File>
/export/apps/rDock/src/rDock_2013.1_src/data/scripts/dock_solv.prm

>  <Rbt.Receptor>
prm/pocket_docking_5.prm

>  <SCORE>
-8.59193

>  <SCORE.INTER>
-11.7302

>  <SCORE.INTER.CONST>
1

>  <SCORE.INTER.POLAR>
-1.27523

>  <SCORE.INTER.ROT>
3

>  <SCORE.INTER.SOLV>
9.05813

>  <SCORE.INTER.VDW>
-12.1887

>  <SCORE.INTER.norm>
-0.53319

>  <SCORE.INTRA>
3.13824

>  <SCORE.INTRA.DIHEDRAL>
4.53741

>  <SCORE.INTRA.DIHEDRAL.0>
4.88619

>  <SCORE.INTRA.POLAR>
0

>  <SCORE.INTRA.POLAR.0>
0

>  <SCORE.INTRA.REPUL>
0

>  <SCORE.INTRA.REPUL.0>
0

>  <SCORE.INTRA.SOLV>
3.74488

>  <SCORE.INTRA.SOLV.lig_0>
-73.8187

>  <SCORE.INTRA.VDW>
-1.0029

>  <SCORE.INTRA.VDW.0>
-1.32335

>  <SCORE.INTRA.norm>
0.142647

>  <SCORE.RESTR>
0

>  <SCORE.RESTR.CAVITY>
0

>  <SCORE.RESTR.norm>
0

>  <SCORE.SYSTEM>
0

>  <SCORE.SYSTEM.CONST>
0

>  <SCORE.SYSTEM.DIHEDRAL>
0

>  <SCORE.SYSTEM.SOLV>
0

>  <SCORE.SYSTEM.norm>
0

>  <SCORE.heavy>
22

>  <SCORE.norm>
-0.390542

>  <RMSD>
2.340

$$$$
2fcx_lig
 OpenBabel11021811433D
libRbt.so/2013.1/901 2013/11/27
 22 23  0  0  0  0  0  0  0  0999 V2000
   28.9669   11.9935    9.7423 N   0  0  0  0  0  0  0  0  0  0  0  0
   25.7208   11.5946   13.3999 N   0  0  0  0  0  0  0  0  0  0  0  0
   29.5719    6.4651   17.9140 N   0  0  0  0  0  0  0  0  0  0  0  0
   30.3582   10.2979   14.1021 O   0  0  0  0  0  0  0  0  0  0  0  0
   29.2926   10.3117   13.1482 C   0  0  2  0  0  0  0  0  0  0  0  0
   24.7630    9.4393   14.6021 N   0  0  0  0  0  0  0  0  0  0  0  0
   30.8236   10.4303   11.3043 O   0  0  0  0  0  0  0  0  0  0  0  0
   29.7124   11.1035   11.9075 C   0  0  1  0  0  0  0  0  0  0  0  0
   27.5677   10.0028   14.8395 O   0  0  0  0  0  0  0  0  0  0  0  0
   28.5601   11.1895   10.9040 C   0  0  1  0  0  0  0  0  0  0  0  0
   28.0675    7.7151   14.7457 O   0  0  0  0  0  0  0  0  0  0  0  0
   27.3282   11.8303   11.5521 C   0  0  0  0  0  0  0  0  0  0  0  0
   26.9935    7.1239   18.2355 O   0  0  0  0  0  0  0  0  0  0  0  0
   26.9007   10.9942   12.7616 C   0  0  1  0  0  0  0  0  0  0  0  0
   24.5566    7.8984   17.0140 O   0  0  0  0  0  0  0  0  0  0  0  0
   28.0241   10.8799   13.7963 C   0  0  2  0  0  0  0  0  0  0  0  0
   27.1168    8.7246   14.3591 C   0  0  1  0  0  0  0  0  0  0  0  0
   28.2049    7.5532   16.1718 C   0  0  2  0  0  0  0  0  0  0  0  0
   29.2046    6.4393   16.4903 C   0  0  0  0  0  0  0  0  0  0  0  0
   26.8616    7.1930   16.8123 C   0  0  2  0  0  0  0  0  0  0  0  0
   25.8259    8.2651   16.4698 C   0  0  1  0  0  0  0  0  0  0  0  0
   25.7388    8.3968   14.9469 C   0  0  1  0  0  0  0  0  0  0  0  0
  5  4  1  1  0  0  0
  5  8  1  0  0  0  0
  5 16  1  0  0  0  0
  8  7  1  6  0  0  0
  8 10  1  0  0  0  0
 10  1  1  6  0  0  0
 10 12  1  0  0  0  0
 11 18  1  0  0  0  0
 12 14  1  0  0  0  0
 14  2  1  1  0  0  0
 14 16  1  0  0  0  0
 16  9  1  1  0  0  0
 17  9  1  1  0  0  0
 17 11  1  0  0  0  0
 17 22  1  0  0  0  0
 18 19  1  6  0  0  0
 18 20  1  0  0  0  0
 19  3  1  0  0  0  0
 20 13  1  1  0  0  0
 20 21  1  0  0  0  0
 21 15  1  6  0  0  0
 21 22  1  0  0  0  0
 22  6  1  1  0  0  0
M  END
>  <CHROM.1>
-66.14810884,109.04682490,167.56671431,27.75073217,9.33593656,14.36193494
1.30313753,0.18940458,-0.89129725

>  <Name>
2fcx_lig

>  <RI>
1.21945e+07

>  <Rbt.Current_Directory>
/home/itssahil/PROJECTS/Mol_Feturizer/New_Systems/rnas/2fcx

>  <Rbt.Executable>
rbdock ($Id: //depot/dev/client3/rdock/2013.1/src/exe/rbdock.cxx#4 $)

>  <Rbt.Library>
libRbt.so (2013.1, Build901 2013/11/27)

>  <Rbt.Parameter_File>
/export/apps/rDock/src/rDock_2013.1_src/data/scripts/dock_solv.prm

>  <Rbt.Receptor>
prm/pocket_docking_3.prm

>  <SCORE>
-8.80545

>  <SCORE.INTER>
-13.3422

>  <SCORE.INTER.CONST>
1

>  <SCORE.INTER.POLAR>
-1.9168

>  <SCORE.INTER.ROT>
3

>  <SCORE.INTER.SOLV>
17.3047

>  <SCORE.INTER.VDW>
-13.8737

>  <SCORE.INTER.norm>
-0.606462

>  <SCORE.INTRA>
4.46562

>  <SCORE.INTRA.DIHEDRAL>
2.47367

>  <SCORE.INTRA.DIHEDRAL.0>
4.88619

>  <SCORE.INTRA.POLAR>
0

>  <SCORE.INTRA.POLAR.0>
0

>  <SCORE.INTRA.REPUL>
0

>  <SCORE.INTRA.REPUL.0>
0

>  <SCORE.INTRA.SOLV>
3.87462

>  <SCORE.INTRA.SOLV.lig_0>
-73.8187

>  <SCORE.INTRA.VDW>
1.29148

>  <SCORE.INTRA.VDW.0>
-1.32335

>  <SCORE.INTRA.norm>
0.202983

>  <SCORE.RESTR>
0.0710908

>  <SCORE.RESTR.CAVITY>
0.0710908

>  <SCORE.RESTR.norm>
0.0032314

>  <SCORE.SYSTEM>
0

>  <SCORE.SYSTEM.CONST>
0

>  <SCORE.SYSTEM.DIHEDRAL>
0

>  <SCORE.SYSTEM.SOLV>
0

>  <SCORE.SYSTEM.norm>
0

>  <SCORE.heavy>
22

>  <SCORE.norm>
-0.400248

>  <RMSD>
2.361

$$$$
2fcx_lig
 OpenBabel11021811433D
libRbt.so/2013.1/901 2013/11/27
 22 23  0  0  0  0  0  0  0  0999 V2000
   31.7577   14.2821   12.6741 N   0  0  0  0  0  0  0  0  0  0  0  0
   29.3518   10.6858   14.9876 N   0  0  0  0  0  0  0  0  0  0  0  0
   28.6467    6.3636   15.6547 N   0  0  0  0  0  0  0  0  0  0  0  0
   28.9064   11.2127   10.1706 O   0  0  0  0  0  0  0  0  0  0  0  0
   29.0452   11.9232   11.4041 C   0  0  2  0  0  0  0  0  0  0  0  0
   25.8564    8.9474   11.0011 N   0  0  0  0  0  0  0  0  0  0  0  0
   30.1611   13.7549   10.3280 O   0  0  0  0  0  0  0  0  0  0  0  0
   30.3099   12.7845   11.3712 C   0  0  1  0  0  0  0  0  0  0  0  0
   27.7725   10.2795   12.6728 O   0  0  0  0  0  0  0  0  0  0  0  0
   30.5140   13.4989   12.7093 C   0  0  1  0  0  0  0  0  0  0  0  0
   28.3743    8.2416   13.6610 O   0  0  0  0  0  0  0  0  0  0  0  0
   30.5913   12.4843   13.8551 C   0  0  0  0  0  0  0  0  0  0  0  0
   25.3252    8.1152   15.7512 O   0  0  0  0  0  0  0  0  0  0  0  0
   29.2964   11.6680   13.8957 C   0  0  1  0  0  0  0  0  0  0  0  0
   24.2338    7.9385   13.1420 O   0  0  0  0  0  0  0  0  0  0  0  0
   29.0491   10.9329   12.5751 C   0  0  2  0  0  0  0  0  0  0  0  0
   27.8389    8.8568   12.4747 C   0  0  1  0  0  0  0  0  0  0  0  0
   27.5565    8.4196   14.8351 C   0  0  2  0  0  0  0  0  0  0  0  0
   28.1809    7.7053   16.0358 C   0  0  0  0  0  0  0  0  0  0  0  0
   26.1519    7.8519   14.6133 C   0  0  2  0  0  0  0  0  0  0  0  0
   25.5192    8.5122   13.3873 C   0  0  1  0  0  0  0  0  0  0  0  0
   26.4403    8.2993   12.1831 C   0  0  1  0  0  0  0  0  0  0  0  0
  5  4  1  6  0  0  0
  5  8  1  0  0  0  0
  5 16  1  0  0  0  0
  8  7  1  6  0  0  0
  8 10  1  0  0  0  0
 10  1  1  6  0  0  0
 10 12  1  0  0  0  0
 11 18  1  0  0  0  0
 12 14  1  0  0  0  0
 14  2  1  1  0  0  0
 14 16  1  0  0  0  0
 16  9  1  1  0  0  0
 17  9  1  1  0  0  0
 17 11  1  0  0  0  0
 17 22  1  0  0  0  0
 18 19  1  1  0  0  0
 18 20  1  0  0  0  0
 19  3  1  0  0  0  0
 20 13  1  1  0  0  0
 20 21  1  0  0  0  0
 21 15  1  6  0  0  0
 21 22  1  0  0  0  0
 22  6  1  6  0  0  0
M  END
>  <CHROM.1>
117.43166348,75.95112674,-44.40997893,28.19425244,10.11284119,13.14012332
-0.75972192,0.66485283,2.12974653

>  <Name>
2fcx_lig

>  <RI>
0

>  <Rbt.Current_Directory>
/home/itssahil/PROJECTS/Mol_Feturizer/New_Systems/rnas/2fcx

>  <Rbt.Executable>
rbdock ($Id: //depot/dev/client3/rdock/2013.1/src/exe/rbdock.cxx#4 $)

>  <Rbt.Library>
libRbt.so (2013.1, Build901 2013/11/27)

>  <Rbt.Parameter_File>
/export/apps/rDock/src/rDock_2013.1_src/data/scripts/dock_solv.prm

>  <Rbt.Receptor>
prm/pocket_docking_6.prm

>  <SCORE>
-9.98671

>  <SCORE.INTER>
-13.0225

>  <SCORE.INTER.CONST>
1

>  <SCORE.INTER.POLAR>
-1.92102

>  <SCORE.INTER.ROT>
3

>  <SCORE.INTER.SOLV>
14.5044

>  <SCORE.INTER.VDW>
-12.7131

>  <SCORE.INTER.norm>
-0.591933

>  <SCORE.INTRA>
3.03582

>  <SCORE.INTRA.DIHEDRAL>
4.29492

>  <SCORE.INTRA.DIHEDRAL.0>
4.88619

>  <SCORE.INTRA.POLAR>
0

>  <SCORE.INTRA.POLAR.0>
0

>  <SCORE.INTRA.REPUL>
0

>  <SCORE.INTRA.REPUL.0>
0

>  <SCORE.INTRA.SOLV>
3.15996

>  <SCORE.INTRA.SOLV.lig_0>
-73.8187

>  <SCORE.INTRA.VDW>
-0.691619

>  <SCORE.INTRA.VDW.0>
-1.32335

>  <SCORE.INTRA.norm>
0.137992

>  <SCORE.RESTR>
0

>  <SCORE.RESTR.CAVITY>
0

>  <SCORE.RESTR.norm>
0

>  <SCORE.SYSTEM>
0

>  <SCORE.SYSTEM.CONST>
0

>  <SCORE.SYSTEM.DIHEDRAL>
0

>  <SCORE.SYSTEM.SOLV>
0

>  <SCORE.SYSTEM.norm>
0

>  <SCORE.heavy>
22

>  <SCORE.norm>
-0.453941

>  <RMSD>
2.380

$$$$
2fcx_lig
 OpenBabel11021811433D
libRbt.so/2013.1/901 2013/11/27
 22 23  0  0  0  0  0  0  0  0999 V2000
   31.7951   14.2480   12.6604 N   0  0  0  0  0  0  0  0  0  0  0  0
   29.3647   10.6643   14.9678 N   0  0  0  0  0  0  0  0  0  0  0  0
   28.6111    6.3555   15.6364 N   0  0  0  0  0  0  0  0  0  0  0  0
   28.8957   11.2241   10.1567 O   0  0  0  0  0  0  0  0  0  0  0  0
   29.0497   11.9258   11.3934 C   0  0  2  0  0  0  0  0  0  0  0  0
   25.8250    8.9767   11.0026 N   0  0  0  0  0  0  0  0  0  0  0  0
   30.1787   13.7517   10.3212 O   0  0  0  0  0  0  0  0  0  0  0  0
   30.3234   12.7737   11.3578 C   0  0  1  0  0  0  0  0  0  0  0  0
   27.7671   10.2885   12.6604 O   0  0  0  0  0  0  0  0  0  0  0  0
   30.5432   13.4780   12.6987 C   0  0  1  0  0  0  0  0  0  0  0  0
   28.3565    8.2439   13.6423 O   0  0  0  0  0  0  0  0  0  0  0  0
   30.6165   12.4560   13.8382 C   0  0  0  0  0  0  0  0  0  0  0  0
   25.3226    8.1456   15.7560 O   0  0  0  0  0  0  0  0  0  0  0  0
   29.3132   11.6534   13.8820 C   0  0  1  0  0  0  0  0  0  0  0  0
   24.2094    7.9818   13.1552 O   0  0  0  0  0  0  0  0  0  0  0  0
   29.0500   10.9287   12.5586 C   0  0  2  0  0  0  0  0  0  0  0  0
   27.8180    8.8653   12.4607 C   0  0  1  0  0  0  0  0  0  0  0  0
   27.5496    8.4289   14.8228 C   0  0  2  0  0  0  0  0  0  0  0  0
   28.1763    7.7075   16.0180 C   0  0  0  0  0  0  0  0  0  0  0  0
   26.1379    7.8752   14.6115 C   0  0  2  0  0  0  0  0  0  0  0  0
   25.5022    8.5428   13.3910 C   0  0  1  0  0  0  0  0  0  0  0  0
   26.4118    8.3219   12.1795 C   0  0  1  0  0  0  0  0  0  0  0  0
  5  4  1  6  0  0  0
  5  8  1  0  0  0  0
  5 16  1  0  0  0  0
  8  7  1  6  0  0  0
  8 10  1  0  0  0  0
 10  1  1  6  0  0  0
 10 12  1  0  0  0  0
 11 18  1  0  0  0  0
 12 14  1  0  0  0  0
 14  2  1  1  0  0  0
 14 16  1  0  0  0  0
 16  9  1  1  0  0  0
 17  9  1  1  0  0  0
 17 11  1  0  0  0  0
 17 22  1  0  0  0  0
 18 19  1  1  0  0  0
 18 20  1  0  0  0  0
 19  3  1  0  0  0  0
 20 13  1  1  0  0  0
 20 21  1  0  0  0  0
 21 15  1  6  0  0  0
 21 22  1  0  0  0  0
 22  6  1  6  0  0  0
M  END
>  <CHROM.1>
117.74045846,75.71417004,-45.09830237,28.19125141,10.11685140,13.13063590
-0.75931402,0.65303665,2.13220901

>  <Name>
2fcx_lig

>  <RI>
1.55453e+07

>  <Rbt.Current_Directory>
/home/itssahil/PROJECTS/Mol_Feturizer/New_Systems/rnas/2fcx

>  <Rbt.Executable>
rbdock ($Id: //depot/dev/client3/rdock/2013.1/src/exe/rbdock.cxx#4 $)

>  <Rbt.Library>
libRbt.so (2013.1, Build901 2013/11/27)

>  <Rbt.Parameter_File>
/export/apps/rDock/src/rDock_2013.1_src/data/scripts/dock_solv.prm

>  <Rbt.Receptor>
prm/pocket_docking_4.prm

>  <SCORE>
-9.99164

>  <SCORE.INTER>
-13.0119

>  <SCORE.INTER.CONST>
1

>  <SCORE.INTER.POLAR>
-1.9266

>  <SCORE.INTER.ROT>
3

>  <SCORE.INTER.SOLV>
14.6457

>  <SCORE.INTER.VDW>
-12.7345

>  <SCORE.INTER.norm>
-0.591452

>  <SCORE.INTRA>
3.02031

>  <SCORE.INTRA.DIHEDRAL>
4.20164

>  <SCORE.INTRA.DIHEDRAL.0>
4.88619

>  <SCORE.INTRA.POLAR>
0

>  <SCORE.INTRA.POLAR.0>
0

>  <SCORE.INTRA.REPUL>
0

>  <SCORE.INTRA.REPUL.0>
0

>  <SCORE.INTRA.SOLV>
3.18772

>  <SCORE.INTRA.SOLV.lig_0>
-73.8187

>  <SCORE.INTRA.VDW>
-0.674369

>  <SCORE.INTRA.VDW.0>
-1.32335

>  <SCORE.INTRA.norm>
0.137287

>  <SCORE.RESTR>
0

>  <SCORE.RESTR.CAVITY>
0

>  <SCORE.RESTR.norm>
0

>  <SCORE.SYSTEM>
0

>  <SCORE.SYSTEM.CONST>
0

>  <SCORE.SYSTEM.DIHEDRAL>
0

>  <SCORE.SYSTEM.SOLV>
0

>  <SCORE.SYSTEM.norm>
0

>  <SCORE.heavy>
22

>  <SCORE.norm>
-0.454165

>  <RMSD>
2.385

$$$$
2fcx_lig
 OpenBabel11021811433D
libRbt.so/2013.1/901 2013/11/27
 22 23  0  0  0  0  0  0  0  0999 V2000
   31.7714   14.2786   12.6816 N   0  0  0  0  0  0  0  0  0  0  0  0
   29.3695   10.6644   14.9714 N   0  0  0  0  0  0  0  0  0  0  0  0
   28.6357    6.3797   15.6679 N   0  0  0  0  0  0  0  0  0  0  0  0
   28.9046   11.2373   10.1615 O   0  0  0  0  0  0  0  0  0  0  0  0
   29.0498   11.9359   11.4010 C   0  0  2  0  0  0  0  0  0  0  0  0
   25.8683    8.9418   10.9893 N   0  0  0  0  0  0  0  0  0  0  0  0
   30.1641   13.7759   10.3375 O   0  0  0  0  0  0  0  0  0  0  0  0
   30.3157   12.7956   11.3709 C   0  0  1  0  0  0  0  0  0  0  0  0
   27.7798   10.2824   12.6596 O   0  0  0  0  0  0  0  0  0  0  0  0
   30.5266   13.4970   12.7147 C   0  0  1  0  0  0  0  0  0  0  0  0
   28.3776    8.2498   13.6610 O   0  0  0  0  0  0  0  0  0  0  0  0
   30.6070   12.4716   13.8506 C   0  0  0  0  0  0  0  0  0  0  0  0
   25.3220    8.1363   15.7423 O   0  0  0  0  0  0  0  0  0  0  0  0
   29.3110   11.6570   13.8891 C   0  0  1  0  0  0  0  0  0  0  0  0
   24.2387    7.9455   13.1307 O   0  0  0  0  0  0  0  0  0  0  0  0
   29.0570   10.9347   12.5626 C   0  0  2  0  0  0  0  0  0  0  0  0
   27.8462    8.8586   12.4696 C   0  0  1  0  0  0  0  0  0  0  0  0
   27.5562    8.4347   14.8315 C   0  0  2  0  0  0  0  0  0  0  0  0
   28.1766    7.7268   16.0381 C   0  0  0  0  0  0  0  0  0  0  0  0
   26.1521    7.8663   14.6085 C   0  0  2  0  0  0  0  0  0  0  0  0
   25.5235    8.5201   13.3768 C   0  0  1  0  0  0  0  0  0  0  0  0
   26.4483    8.3000   12.1767 C   0  0  1  0  0  0  0  0  0  0  0  0
  5  4  1  6  0  0  0
  5  8  1  0  0  0  0
  5 16  1  0  0  0  0
  8  7  1  6  0  0  0
  8 10  1  0  0  0  0
 10  1  1  6  0  0  0
 10 12  1  0  0  0  0
 11 18  1  0  0  0  0
 12 14  1  0  0  0  0
 14  2  1  1  0  0  0
 14 16  1  0  0  0  0
 16  9  1  1  0  0  0
 17  9  1  1  0  0  0
 17 11  1  0  0  0  0
 17 22  1  0  0  0  0
 18 19  1  1  0  0  0
 18 20  1  0  0  0  0
 19  3  1  0  0  0  0
 20 13  1  1  0  0  0
 20 21  1  0  0  0  0
 21 15  1  6  0  0  0
 21 22  1  0  0  0  0
 22  6  1  6  0  0  0
M  END
>  <CHROM.1>
118.39559971,75.93380821,-44.74874845,28.19965003,10.11916934,13.13599290
-0.75821211,0.66373222,2.12924637

>  <Name>
2fcx_lig

>  <RI>
0

>  <Rbt.Current_Directory>
/home/itssahil/PROJECTS/Mol_Feturizer/New_Systems/rnas/2fcx

>  <Rbt.Executable>
rbdock ($Id: //depot/dev/client3/rdock/2013.1/src/exe/rbdock.cxx#4 $)

>  <Rbt.Library>
libRbt.so (2013.1, Build901 2013/11/27)

>  <Rbt.Parameter_File>
/export/apps/rDock/src/rDock_2013.1_src/data/scripts/dock_solv.prm

>  <Rbt.Receptor>
prm/pocket_docking_6.prm

>  <SCORE>
-10.0067

>  <SCORE.INTER>
-13.0856

>  <SCORE.INTER.CONST>
1

>  <SCORE.INTER.POLAR>
-1.92701

>  <SCORE.INTER.ROT>
3

>  <SCORE.INTER.SOLV>
14.4123

>  <SCORE.INTER.VDW>
-12.7045

>  <SCORE.INTER.norm>
-0.594802

>  <SCORE.INTRA>
3.07894

>  <SCORE.INTRA.DIHEDRAL>
4.27868

>  <SCORE.INTRA.DIHEDRAL.0>
4.88619

>  <SCORE.INTRA.POLAR>
0

>  <SCORE.INTRA.POLAR.0>
0

>  <SCORE.INTRA.REPUL>
0

>  <SCORE.INTRA.REPUL.0>
0

>  <SCORE.INTRA.SOLV>
3.20705

>  <SCORE.INTRA.SOLV.lig_0>
-73.8187

>  <SCORE.INTRA.VDW>
-0.663924

>  <SCORE.INTRA.VDW.0>
-1.32335

>  <SCORE.INTRA.norm>
0.139952

>  <SCORE.RESTR>
0

>  <SCORE.RESTR.CAVITY>
0

>  <SCORE.RESTR.norm>
0

>  <SCORE.SYSTEM>
0

>  <SCORE.SYSTEM.CONST>
0

>  <SCORE.SYSTEM.DIHEDRAL>
0

>  <SCORE.SYSTEM.SOLV>
0

>  <SCORE.SYSTEM.norm>
0

>  <SCORE.heavy>
22

>  <SCORE.norm>
-0.45485

>  <RMSD>
2.388

$$$$
2fcx_lig
 OpenBabel11021811433D
libRbt.so/2013.1/901 2013/11/27
 22 23  0  0  0  0  0  0  0  0999 V2000
   28.4788   13.3603   10.1104 N   0  0  0  0  0  0  0  0  0  0  0  0
   29.3420    8.9677   12.1190 N   0  0  0  0  0  0  0  0  0  0  0  0
   29.2459    7.0155   18.1674 N   0  0  0  0  0  0  0  0  0  0  0  0
   25.4638   11.5620   13.5008 O   0  0  0  0  0  0  0  0  0  0  0  0
   26.8324   11.6538   13.0958 C   0  0  2  0  0  0  0  0  0  0  0  0
   24.6064    9.1239   14.0329 N   0  0  0  0  0  0  0  0  0  0  0  0
   26.5031   13.8386   12.1596 O   0  0  0  0  0  0  0  0  0  0  0  0
   26.9477   12.5158   11.8364 C   0  0  1  0  0  0  0  0  0  0  0  0
   27.4446    9.5410   14.1411 O   0  0  0  0  0  0  0  0  0  0  0  0
   28.3967   12.5683   11.3464 C   0  0  1  0  0  0  0  0  0  0  0  0
   27.7812    7.3065   14.7619 O   0  0  0  0  0  0  0  0  0  0  0  0
   28.9247   11.1558   11.0741 C   0  0  0  0  0  0  0  0  0  0  0  0
   26.6762    7.8887   18.2435 O   0  0  0  0  0  0  0  0  0  0  0  0
   28.8423   10.3287   12.3602 C   0  0  1  0  0  0  0  0  0  0  0  0
   24.2974    8.4149   16.7963 O   0  0  0  0  0  0  0  0  0  0  0  0
   27.4075   10.2471   12.8896 C   0  0  2  0  0  0  0  0  0  0  0  0
   26.9033    8.2109   14.0663 C   0  0  1  0  0  0  0  0  0  0  0  0
   27.9101    7.5809   16.1715 C   0  0  2  0  0  0  0  0  0  0  0  0
   28.8294    6.5531   16.8350 C   0  0  0  0  0  0  0  0  0  0  0  0
   26.5463    7.5267   16.8652 C   0  0  2  0  0  0  0  0  0  0  0  0
   25.5881    8.5098   16.1908 C   0  0  1  0  0  0  0  0  0  0  0  0
   25.5070    8.1736   14.6994 C   0  0  1  0  0  0  0  0  0  0  0  0
  5  4  1  6  0  0  0
  5  8  1  0  0  0  0
  5 16  1  0  0  0  0
  8  7  1  1  0  0  0
  8 10  1  0  0  0  0
 10  1  1  6  0  0  0
 10 12  1  0  0  0  0
 11 18  1  0  0  0  0
 12 14  1  0  0  0  0
 14  2  1  6  0  0  0
 14 16  1  0  0  0  0
 16  9  1  1  0  0  0
 17  9  1  1  0  0  0
 17 11  1  0  0  0  0
 17 22  1  0  0  0  0
 18 19  1  1  0  0  0
 18 20  1  0  0  0  0
 19  3  1  0  0  0  0
 20 13  1  1  0  0  0
 20 21  1  0  0  0  0
 21 15  1  1  0  0  0
 21 22  1  0  0  0  0
 22  6  1  6  0  0  0
M  END
>  <CHROM.1>
132.09045766,135.17687513,165.21580175,27.17482200,9.63991153,14.19386337
-1.47003680,-0.37196137,2.34301907

>  <Name>
2fcx_lig

>  <RI>
1.21945e+07

>  <Rbt.Current_Directory>
/home/itssahil/PROJECTS/Mol_Feturizer/New_Systems/rnas/2fcx

>  <Rbt.Executable>
rbdock ($Id: //depot/dev/client3/rdock/2013.1/src/exe/rbdock.cxx#4 $)

>  <Rbt.Library>
libRbt.so (2013.1, Build901 2013/11/27)

>  <Rbt.Parameter_File>
/export/apps/rDock/src/rDock_2013.1_src/data/scripts/dock_solv.prm

>  <Rbt.Receptor>
prm/pocket_docking_3.prm

>  <SCORE>
-10.0084

>  <SCORE.INTER>
-15.8834

>  <SCORE.INTER.CONST>
1

>  <SCORE.INTER.POLAR>
-1.96284

>  <SCORE.INTER.ROT>
3

>  <SCORE.INTER.SOLV>
15.4168

>  <SCORE.INTER.VDW>
-14.785

>  <SCORE.INTER.norm>
-0.721973

>  <SCORE.INTRA>
5.28069

>  <SCORE.INTRA.DIHEDRAL>
8.50106

>  <SCORE.INTRA.DIHEDRAL.0>
4.88619

>  <SCORE.INTRA.POLAR>
0

>  <SCORE.INTRA.POLAR.0>
0

>  <SCORE.INTRA.REPUL>
0

>  <SCORE.INTRA.REPUL.0>
0

>  <SCORE.INTRA.SOLV>
2.75872

>  <SCORE.INTRA.SOLV.lig_0>
-73.8187

>  <SCORE.INTRA.VDW>
-0.3492

>  <SCORE.INTRA.VDW.0>
-1.32335

>  <SCORE.INTRA.norm>
0.240032

>  <SCORE.RESTR>
0.594308

>  <SCORE.RESTR.CAVITY>
0.594308

>  <SCORE.RESTR.norm>
0.027014

>  <SCORE.SYSTEM>
0

>  <SCORE.SYSTEM.CONST>
0

>  <SCORE.SYSTEM.DIHEDRAL>
0

>  <SCORE.SYSTEM.SOLV>
0

>  <SCORE.SYSTEM.norm>
0

>  <SCORE.heavy>
22

>  <SCORE.norm>
-0.454927

>  <RMSD>
2.418

$$$$
2fcx_lig
 OpenBabel11021811433D
libRbt.so/2013.1/901 2013/11/27
 22 23  0  0  0  0  0  0  0  0999 V2000
   31.6147   15.8792   11.9048 N   0  0  0  0  0  0  0  0  0  0  0  0
   29.1698   13.5885   15.4894 N   0  0  0  0  0  0  0  0  0  0  0  0
   30.4527    8.2625   17.3595 N   0  0  0  0  0  0  0  0  0  0  0  0
   30.5358   11.1355   11.5149 O   0  0  0  0  0  0  0  0  0  0  0  0
   30.0609   12.3988   11.9883 C   0  0  2  0  0  0  0  0  0  0  0  0
   27.0787    9.3776   12.5280 N   0  0  0  0  0  0  0  0  0  0  0  0
   31.1673   13.5808   10.2172 O   0  0  0  0  0  0  0  0  0  0  0  0
   31.0685   13.4981   11.6439 C   0  0  1  0  0  0  0  0  0  0  0  0
   28.7050   11.4034   13.7496 O   0  0  0  0  0  0  0  0  0  0  0  0
   30.6115   14.8470   12.2042 C   0  0  1  0  0  0  0  0  0  0  0  0
   29.8626    9.7779   14.9782 O   0  0  0  0  0  0  0  0  0  0  0  0
   30.4159   14.7614   13.7217 C   0  0  0  0  0  0  0  0  0  0  0  0
   27.0871    9.3158   17.3793 O   0  0  0  0  0  0  0  0  0  0  0  0
   29.3700   13.6883   14.0368 C   0  0  1  0  0  0  0  0  0  0  0  0
   25.9058    8.4183   14.9649 O   0  0  0  0  0  0  0  0  0  0  0  0
   29.7847   12.3173   13.4946 C   0  0  2  0  0  0  0  0  0  0  0  0
   29.1131   10.0247   13.7742 C   0  0  1  0  0  0  0  0  0  0  0  0
   29.1053    9.9672   16.1905 C   0  0  2  0  0  0  0  0  0  0  0  0
   29.9666    9.6492   17.4148 C   0  0  0  0  0  0  0  0  0  0  0  0
   27.8768    9.0538   16.2151 C   0  0  2  0  0  0  0  0  0  0  0  0
   27.0193    9.3136   14.9753 C   0  0  1  0  0  0  0  0  0  0  0  0
   27.8832    9.1100   13.7279 C   0  0  1  0  0  0  0  0  0  0  0  0
  5  4  1  1  0  0  0
  5  8  1  0  0  0  0
  5 16  1  0  0  0  0
  8  7  1  6  0  0  0
  8 10  1  0  0  0  0
 10  1  1  1  0  0  0
 10 12  1  0  0  0  0
 11 18  1  0  0  0  0
 12 14  1  0  0  0  0
 14  2  1  1  0  0  0
 14 16  1  0  0  0  0
 16  9  1  6  0  0  0
 17  9  1  1  0  0  0
 17 11  1  0  0  0  0
 17 22  1  0  0  0  0
 18 19  1  1  0  0  0
 18 20  1  0  0  0  0
 19  3  1  0  0  0  0
 20 13  1  1  0  0  0
 20 21  1  0  0  0  0
 21 15  1  6  0  0  0
 21 22  1  0  0  0  0
 22  6  1  6  0  0  0
M  END
>  <CHROM.1>
81.95623249,72.25890886,-58.96110776,29.25372921,11.30416864,14.06460037
-0.79812564,0.96833166,1.79794556

>  <Name>
2fcx_lig

>  <RI>
3.23342e+07

>  <Rbt.Current_Directory>
/home/itssahil/PROJECTS/Mol_Feturizer/New_Systems/rnas/2fcx

>  <Rbt.Executable>
rbdock ($Id: //depot/dev/client3/rdock/2013.1/src/exe/rbdock.cxx#4 $)

>  <Rbt.Library>
libRbt.so (2013.1, Build901 2013/11/27)

>  <Rbt.Parameter_File>
/export/apps/rDock/src/rDock_2013.1_src/data/scripts/dock_solv.prm

>  <Rbt.Receptor>
prm/pocket_docking_5.prm

>  <SCORE>
-4.75562

>  <SCORE.INTER>
-4.22383

>  <SCORE.INTER.CONST>
1

>  <SCORE.INTER.POLAR>
-0.576313

>  <SCORE.INTER.ROT>
3

>  <SCORE.INTER.SOLV>
10.5126

>  <SCORE.INTER.VDW>
-9.99904

>  <SCORE.INTER.norm>
-0.191992

>  <SCORE.INTRA>
-0.531795

>  <SCORE.INTRA.DIHEDRAL>
-2.02999

>  <SCORE.INTRA.DIHEDRAL.0>
4.88619

>  <SCORE.INTRA.POLAR>
0

>  <SCORE.INTRA.POLAR.0>
0

>  <SCORE.INTRA.REPUL>
0

>  <SCORE.INTRA.REPUL.0>
0

>  <SCORE.INTRA.SOLV>
1.38586

>  <SCORE.INTRA.SOLV.lig_0>
-73.8187

>  <SCORE.INTRA.VDW>
-0.209733

>  <SCORE.INTRA.VDW.0>
-1.32335

>  <SCORE.INTRA.norm>
-0.0241725

>  <SCORE.RESTR>
0

>  <SCORE.RESTR.CAVITY>
0

>  <SCORE.RESTR.norm>
0

>  <SCORE.SYSTEM>
0

>  <SCORE.SYSTEM.CONST>
0

>  <SCORE.SYSTEM.DIHEDRAL>
0

>  <SCORE.SYSTEM.SOLV>
0

>  <SCORE.SYSTEM.norm>
0

>  <SCORE.heavy>
22

>  <SCORE.norm>
-0.216165

>  <RMSD>
2.438

$$$$
2fcx_lig
 OpenBabel11021811433D
libRbt.so/2013.1/901 2013/11/27
 22 23  0  0  0  0  0  0  0  0999 V2000
   28.4638   13.6890   10.2177 N   0  0  0  0  0  0  0  0  0  0  0  0
   29.3682    9.2523   12.1078 N   0  0  0  0  0  0  0  0  0  0  0  0
   29.2449    6.9949   17.9528 N   0  0  0  0  0  0  0  0  0  0  0  0
   25.3718   11.6963   13.4252 O   0  0  0  0  0  0  0  0  0  0  0  0
   26.7518   11.8373   13.0770 C   0  0  2  0  0  0  0  0  0  0  0  0
   24.5460    9.2622   13.9767 N   0  0  0  0  0  0  0  0  0  0  0  0
   26.3995   14.0444   12.2036 O   0  0  0  0  0  0  0  0  0  0  0  0
   26.8916   12.7455   11.8531 C   0  0  1  0  0  0  0  0  0  0  0  0
   27.3806    9.7056   14.0729 O   0  0  0  0  0  0  0  0  0  0  0  0
   28.3561   12.8524   11.4219 C   0  0  1  0  0  0  0  0  0  0  0  0
   27.7487    7.4468   14.5770 O   0  0  0  0  0  0  0  0  0  0  0  0
   28.9320   11.4642   11.1225 C   0  0  0  0  0  0  0  0  0  0  0  0
   26.6797    7.8418   18.0959 O   0  0  0  0  0  0  0  0  0  0  0  0
   28.8232   10.5908   12.3755 C   0  0  1  0  0  0  0  0  0  0  0  0
   24.2780    8.4126   16.7044 O   0  0  0  0  0  0  0  0  0  0  0  0
   27.3720   10.4540   12.8457 C   0  0  2  0  0  0  0  0  0  0  0  0
   26.8528    8.3748   13.9378 C   0  0  1  0  0  0  0  0  0  0  0  0
   27.8917    7.6519   15.9970 C   0  0  2  0  0  0  0  0  0  0  0  0
   28.8300    6.6028   16.5976 C   0  0  0  0  0  0  0  0  0  0  0  0
   26.5370    7.5476   16.7028 C   0  0  2  0  0  0  0  0  0  0  0  0
   25.5602    8.5523   16.0896 C   0  0  1  0  0  0  0  0  0  0  0  0
   25.4648    8.2901   14.5843 C   0  0  1  0  0  0  0  0  0  0  0  0
  5  4  1  6  0  0  0
  5  8  1  0  0  0  0
  5 16  1  0  0  0  0
  8  7  1  1  0  0  0
  8 10  1  0  0  0  0
 10  1  1  6  0  0  0
 10 12  1  0  0  0  0
 11 18  1  0  0  0  0
 12 14  1  0  0  0  0
 14  2  1  6  0  0  0
 14 16  1  0  0  0  0
 16  9  1  1  0  0  0
 17  9  1  1  0  0  0
 17 11  1  0  0  0  0
 17 22  1  0  0  0  0
 18 19  1  1  0  0  0
 18 20  1  0  0  0  0
 19  3  1  0  0  0  0
 20 13  1  1  0  0  0
 20 21  1  0  0  0  0
 21 15  1  1  0  0  0
 21 22  1  0  0  0  0
 22  6  1  6  0  0  0
M  END
>  <CHROM.1>
130.87028136,132.73326237,165.88389246,27.14109776,9.78618011,14.12369498
-1.47548180,-0.34419206,2.38307854

>  <Name>
2fcx_lig

>  <RI>
1.55453e+07

>  <Rbt.Current_Directory>
/home/itssahil/PROJECTS/Mol_Feturizer/New_Systems/rnas/2fcx

>  <Rbt.Executable>
rbdock ($Id: //depot/dev/client3/rdock/2013.1/src/exe/rbdock.cxx#4 $)

>  <Rbt.Library>
libRbt.so (2013.1, Build901 2013/11/27)

>  <Rbt.Parameter_File>
/export/apps/rDock/src/rDock_2013.1_src/data/scripts/dock_solv.prm

>  <Rbt.Receptor>
prm/pocket_docking_4.prm

>  <SCORE>
-11.2086

>  <SCORE.INTER>
-16.7259

>  <SCORE.INTER.CONST>
1

>  <SCORE.INTER.POLAR>
-2.07177

>  <SCORE.INTER.ROT>
3

>  <SCORE.INTER.SOLV>
14.2164

>  <SCORE.INTER.VDW>
-14.5835

>  <SCORE.INTER.norm>
-0.760268

>  <SCORE.INTRA>
5.51686

>  <SCORE.INTRA.DIHEDRAL>
8.87468

>  <SCORE.INTRA.DIHEDRAL.0>
4.88619

>  <SCORE.INTRA.POLAR>
0

>  <SCORE.INTRA.POLAR.0>
0

>  <SCORE.INTRA.REPUL>
0

>  <SCORE.INTRA.REPUL.0>
0

>  <SCORE.INTRA.SOLV>
2.78502

>  <SCORE.INTRA.SOLV.lig_0>
-73.8187

>  <SCORE.INTRA.VDW>
-0.312983

>  <SCORE.INTRA.VDW.0>
-1.32335

>  <SCORE.INTRA.norm>
0.250767

>  <SCORE.RESTR>
0.000473985

>  <SCORE.RESTR.CAVITY>
0.000473985

>  <SCORE.RESTR.norm>
2.15448e-05

>  <SCORE.SYSTEM>
0

>  <SCORE.SYSTEM.CONST>
0

>  <SCORE.SYSTEM.DIHEDRAL>
0

>  <SCORE.SYSTEM.SOLV>
0

>  <SCORE.SYSTEM.norm>
0

>  <SCORE.heavy>
22

>  <SCORE.norm>
-0.50948

>  <RMSD>
2.440

$$$$
2fcx_lig
 OpenBabel11021811433D
libRbt.so/2013.1/901 2013/11/27
 22 23  0  0  0  0  0  0  0  0999 V2000
   28.4511   13.6838   10.1666 N   0  0  0  0  0  0  0  0  0  0  0  0
   29.3717    9.2605   12.0800 N   0  0  0  0  0  0  0  0  0  0  0  0
   29.2505    7.0559   17.9817 N   0  0  0  0  0  0  0  0  0  0  0  0
   25.3834   11.7112   13.4096 O   0  0  0  0  0  0  0  0  0  0  0  0
   26.7608   11.8506   13.0506 C   0  0  2  0  0  0  0  0  0  0  0  0
   24.5704    9.2423   13.9483 N   0  0  0  0  0  0  0  0  0  0  0  0
   26.4010   14.0515   12.1649 O   0  0  0  0  0  0  0  0  0  0  0  0
   26.8913   12.7506   11.8196 C   0  0  1  0  0  0  0  0  0  0  0  0
   27.3979    9.7260   14.0562 O   0  0  0  0  0  0  0  0  0  0  0  0
   28.3526   12.8553   11.3772 C   0  0  1  0  0  0  0  0  0  0  0  0
   27.7946    7.4768   14.5811 O   0  0  0  0  0  0  0  0  0  0  0  0
   28.9272   11.4654   11.0830 C   0  0  0  0  0  0  0  0  0  0  0  0
   26.7007    7.8857   18.0907 O   0  0  0  0  0  0  0  0  0  0  0  0
   28.8278   10.6004   12.3426 C   0  0  1  0  0  0  0  0  0  0  0  0
   24.2991    8.4115   16.6815 O   0  0  0  0  0  0  0  0  0  0  0  0
   27.3801   10.4660   12.8241 C   0  0  2  0  0  0  0  0  0  0  0  0
   26.8895    8.3869   13.9293 C   0  0  1  0  0  0  0  0  0  0  0  0
   27.9269    7.6955   16.0001 C   0  0  2  0  0  0  0  0  0  0  0  0
   28.8763    6.6645   16.6145 C   0  0  0  0  0  0  0  0  0  0  0  0
   26.5698    7.5781   16.6994 C   0  0  2  0  0  0  0  0  0  0  0  0
   25.5826    8.5640   16.0725 C   0  0  1  0  0  0  0  0  0  0  0  0
   25.4991    8.2881   14.5689 C   0  0  1  0  0  0  0  0  0  0  0  0
  5  4  1  6  0  0  0
  5  8  1  0  0  0  0
  5 16  1  0  0  0  0
  8  7  1  1  0  0  0
  8 10  1  0  0  0  0
 10  1  1  6  0  0  0
 10 12  1  0  0  0  0
 11 18  1  0  0  0  0
 12 14  1  0  0  0  0
 14  2  1  6  0  0  0
 14 16  1  0  0  0  0
 16  9  1  1  0  0  0
 17  9  1  1  0  0  0
 17 11  1  0  0  0  0
 17 22  1  0  0  0  0
 18 19  1  1  0  0  0
 18 20  1  0  0  0  0
 19  3  1  0  0  0  0
 20 13  1  1  0  0  0
 20 21  1  0  0  0  0
 21 15  1  1  0  0  0
 21 22  1  0  0  0  0
 22  6  1  6  0  0  0
M  END
>  <CHROM.1>
131.79543156,132.99985469,167.35499508,27.15752667,9.80276932,14.10581990
-1.47997740,-0.34098114,2.37414945

>  <Name>
2fcx_lig

>  <RI>
1.55453e+07

>  <Rbt.Current_Directory>
/home/itssahil/PROJECTS/Mol_Feturizer/New_Systems/rnas/2fcx

>  <Rbt.Executable>
rbdock ($Id: //depot/dev/client3/rdock/2013.1/src/exe/rbdock.cxx#4 $)

>  <Rbt.Library>
libRbt.so (2013.1, Build901 2013/11/27)

>  <Rbt.Parameter_File>
/export/apps/rDock/src/rDock_2013.1_src/data/scripts/dock_solv.prm

>  <Rbt.Receptor>
prm/pocket_docking_4.prm

>  <SCORE>
-11.2

>  <SCORE.INTER>
-16.5982

>  <SCORE.INTER.CONST>
1

>  <SCORE.INTER.POLAR>
-2.06121

>  <SCORE.INTER.ROT>
3

>  <SCORE.INTER.SOLV>
14.0648

>  <SCORE.INTER.VDW>
-14.4831

>  <SCORE.INTER.norm>
-0.754465

>  <SCORE.INTRA>
5.39826

>  <SCORE.INTRA.DIHEDRAL>
8.61451

>  <SCORE.INTRA.DIHEDRAL.0>
4.88619

>  <SCORE.INTRA.POLAR>
0

>  <SCORE.INTRA.POLAR.0>
0

>  <SCORE.INTRA.REPUL>
0

>  <SCORE.INTRA.REPUL.0>
0

>  <SCORE.INTRA.SOLV>
2.80782

>  <SCORE.INTRA.SOLV.lig_0>
-73.8187

>  <SCORE.INTRA.VDW>
-0.312907

>  <SCORE.INTRA.VDW.0>
-1.32335

>  <SCORE.INTRA.norm>
0.245375

>  <SCORE.RESTR>
0

>  <SCORE.RESTR.CAVITY>
0

>  <SCORE.RESTR.norm>
0

>  <SCORE.SYSTEM>
0

>  <SCORE.SYSTEM.CONST>
0

>  <SCORE.SYSTEM.DIHEDRAL>
0

>  <SCORE.SYSTEM.SOLV>
0

>  <SCORE.SYSTEM.norm>
0

>  <SCORE.heavy>
22

>  <SCORE.norm>
-0.50909

>  <RMSD>
2.448

$$$$
2fcx_lig
 OpenBabel11021811433D
libRbt.so/2013.1/901 2013/11/27
 22 23  0  0  0  0  0  0  0  0999 V2000
   28.1414   13.1734    9.9375 N   0  0  0  0  0  0  0  0  0  0  0  0
   27.3631    8.4983   11.2071 N   0  0  0  0  0  0  0  0  0  0  0  0
   29.5829    6.4232   17.9729 N   0  0  0  0  0  0  0  0  0  0  0  0
   28.1226   11.8637   14.6389 O   0  0  0  0  0  0  0  0  0  0  0  0
   28.4939   11.4515   13.3206 C   0  0  2  0  0  0  0  0  0  0  0  0
   25.4250    9.5124   13.9597 N   0  0  0  0  0  0  0  0  0  0  0  0
   28.9680   13.7065   12.6511 O   0  0  0  0  0  0  0  0  0  0  0  0
   28.1744   12.5617   12.3168 C   0  0  1  0  0  0  0  0  0  0  0  0
   28.2601    9.0812   13.8288 O   0  0  0  0  0  0  0  0  0  0  0  0
   28.4996   12.1126   10.8903 C   0  0  1  0  0  0  0  0  0  0  0  0
   27.9972    6.8974   14.6375 O   0  0  0  0  0  0  0  0  0  0  0  0
   27.7257   10.8378   10.5374 C   0  0  0  0  0  0  0  0  0  0  0  0
   27.4421    8.0285   18.1151 O   0  0  0  0  0  0  0  0  0  0  0  0
   28.0980    9.7302   11.5270 C   0  0  1  0  0  0  0  0  0  0  0  0
   25.1889    9.1268   16.7934 O   0  0  0  0  0  0  0  0  0  0  0  0
   27.7895   10.1347   12.9716 C   0  0  2  0  0  0  0  0  0  0  0  0
   27.3546    7.9679   13.9208 C   0  0  1  0  0  0  0  0  0  0  0  0
   28.3328    7.2224   16.0015 C   0  0  2  0  0  0  0  0  0  0  0  0
   28.9763    6.0198   16.6955 C   0  0  0  0  0  0  0  0  0  0  0  0
   27.0833    7.6226   16.7907 C   0  0  2  0  0  0  0  0  0  0  0  0
   26.3888    8.7933   16.0930 C   0  0  1  0  0  0  0  0  0  0  0  0
   26.0733    8.3894   14.6503 C   0  0  1  0  0  0  0  0  0  0  0  0
  5  4  1  1  0  0  0
  5  8  1  0  0  0  0
  5 16  1  0  0  0  0
  8  7  1  1  0  0  0
  8 10  1  0  0  0  0
 10  1  1  6  0  0  0
 10 12  1  0  0  0  0
 11 18  1  0  0  0  0
 12 14  1  0  0  0  0
 14  2  1  6  0  0  0
 14 16  1  0  0  0  0
 16  9  1  1  0  0  0
 17  9  1  1  0  0  0
 17 11  1  0  0  0  0
 17 22  1  0  0  0  0
 18 19  1  1  0  0  0
 18 20  1  0  0  0  0
 19  3  1  0  0  0  0
 20 13  1  1  0  0  0
 20 21  1  0  0  0  0
 21 15  1  1  0  0  0
 21 22  1  0  0  0  0
 22  6  1  6  0  0  0
M  END
>  <CHROM.1>
158.71159611,171.77389687,167.63508889,27.70460427,9.51467288,14.11338429
-0.93314864,-1.45638750,2.93167004

>  <Name>
2fcx_lig

>  <RI>
1.21945e+07

>  <Rbt.Current_Directory>
/home/itssahil/PROJECTS/Mol_Feturizer/New_Systems/rnas/2fcx

>  <Rbt.Executable>
rbdock ($Id: //depot/dev/client3/rdock/2013.1/src/exe/rbdock.cxx#4 $)

>  <Rbt.Library>
libRbt.so (2013.1, Build901 2013/11/27)

>  <Rbt.Parameter_File>
/export/apps/rDock/src/rDock_2013.1_src/data/scripts/dock_solv.prm

>  <Rbt.Receptor>
prm/pocket_docking_3.prm

>  <SCORE>
-12.6595

>  <SCORE.INTER>
-15.3945

>  <SCORE.INTER.CONST>
1

>  <SCORE.INTER.POLAR>
-1.81011

>  <SCORE.INTER.ROT>
3

>  <SCORE.INTER.SOLV>
10.8507

>  <SCORE.INTER.VDW>
-13.4462

>  <SCORE.INTER.norm>
-0.699751

>  <SCORE.INTRA>
2.73503

>  <SCORE.INTRA.DIHEDRAL>
-1.99565

>  <SCORE.INTRA.DIHEDRAL.0>
4.88619

>  <SCORE.INTRA.POLAR>
0

>  <SCORE.INTRA.POLAR.0>
0

>  <SCORE.INTRA.REPUL>
0

>  <SCORE.INTRA.REPUL.0>
0

>  <SCORE.INTRA.SOLV>
4.71548

>  <SCORE.INTRA.SOLV.lig_0>
-73.8187

>  <SCORE.INTRA.VDW>
1.37511

>  <SCORE.INTRA.VDW.0>
-1.32335

>  <SCORE.INTRA.norm>
0.124319

>  <SCORE.RESTR>
0

>  <SCORE.RESTR.CAVITY>
0

>  <SCORE.RESTR.norm>
0

>  <SCORE.SYSTEM>
0

>  <SCORE.SYSTEM.CONST>
0

>  <SCORE.SYSTEM.DIHEDRAL>
0

>  <SCORE.SYSTEM.SOLV>
0

>  <SCORE.SYSTEM.norm>
0

>  <SCORE.heavy>
22

>  <SCORE.norm>
-0.575432

>  <RMSD>
2.640

$$$$
2fcx_lig
 OpenBabel11021811433D
libRbt.so/2013.1/901 2013/11/27
 22 23  0  0  0  0  0  0  0  0999 V2000
   28.0874   13.1086    9.6334 N   0  0  0  0  0  0  0  0  0  0  0  0
   27.6049    8.6265   11.5707 N   0  0  0  0  0  0  0  0  0  0  0  0
   29.1188    5.6714   17.2721 N   0  0  0  0  0  0  0  0  0  0  0  0
   28.6996   12.4126   14.4250 O   0  0  0  0  0  0  0  0  0  0  0  0
   28.9123   11.8389   13.1323 C   0  0  2  0  0  0  0  0  0  0  0  0
   25.9883    9.8841   14.3695 N   0  0  0  0  0  0  0  0  0  0  0  0
   29.2357   13.9945   12.1289 O   0  0  0  0  0  0  0  0  0  0  0  0
   28.4380   12.8075   12.0465 C   0  0  1  0  0  0  0  0  0  0  0  0
   28.8101    9.5509   13.9605 O   0  0  0  0  0  0  0  0  0  0  0  0
   28.5923   12.1828   10.6579 C   0  0  1  0  0  0  0  0  0  0  0  0
   28.7457    7.4535   15.0038 O   0  0  0  0  0  0  0  0  0  0  0  0
   27.8154   10.8648   10.5710 C   0  0  0  0  0  0  0  0  0  0  0  0
   28.5178    8.9142   18.3943 O   0  0  0  0  0  0  0  0  0  0  0  0
   28.3403    9.8974   11.6356 C   0  0  1  0  0  0  0  0  0  0  0  0
   26.0822    9.7834   17.2358 O   0  0  0  0  0  0  0  0  0  0  0  0
   28.2060   10.4804   13.0455 C   0  0  2  0  0  0  0  0  0  0  0  0
   27.9764    8.4190   14.2633 C   0  0  1  0  0  0  0  0  0  0  0  0
   29.2116    7.9297   16.2825 C   0  0  2  0  0  0  0  0  0  0  0  0
   29.9859    6.8306   17.0133 C   0  0  0  0  0  0  0  0  0  0  0  0
   28.0373    8.3607   17.1654 C   0  0  2  0  0  0  0  0  0  0  0  0
   27.2136    9.4259   16.4397 C   0  0  1  0  0  0  0  0  0  0  0  0
   26.7630    8.8639   15.0888 C   0  0  1  0  0  0  0  0  0  0  0  0
  5  4  1  1  0  0  0
  5  8  1  0  0  0  0
  5 16  1  0  0  0  0
  8  7  1  6  0  0  0
  8 10  1  0  0  0  0
 10  1  1  6  0  0  0
 10 12  1  0  0  0  0
 11 18  1  0  0  0  0
 12 14  1  0  0  0  0
 14  2  1  1  0  0  0
 14 16  1  0  0  0  0
 16  9  1  1  0  0  0
 17  9  1  1  0  0  0
 17 11  1  0  0  0  0
 17 22  1  0  0  0  0
 18 19  1  1  0  0  0
 18 20  1  0  0  0  0
 19  3  1  0  0  0  0
 20 13  1  1  0  0  0
 20 21  1  0  0  0  0
 21 15  1  1  0  0  0
 21 22  1  0  0  0  0
 22  6  1  6  0  0  0
M  END
>  <CHROM.1>
161.22125659,170.78033754,-61.53780574,28.20600431,9.89091886,14.19725695
-1.56621712,-1.44195254,2.24662065

>  <Name>
2fcx_lig

>  <RI>
1.21945e+07

>  <Rbt.Current_Directory>
/home/itssahil/PROJECTS/Mol_Feturizer/New_Systems/rnas/2fcx

>  <Rbt.Executable>
rbdock ($Id: //depot/dev/client3/rdock/2013.1/src/exe/rbdock.cxx#4 $)

>  <Rbt.Library>
libRbt.so (2013.1, Build901 2013/11/27)

>  <Rbt.Parameter_File>
/export/apps/rDock/src/rDock_2013.1_src/data/scripts/dock_solv.prm

>  <Rbt.Receptor>
prm/pocket_docking_3.prm

>  <SCORE>
-7.70037

>  <SCORE.INTER>
-10.2149

>  <SCORE.INTER.CONST>
1

>  <SCORE.INTER.POLAR>
-1.79925

>  <SCORE.INTER.ROT>
3

>  <SCORE.INTER.SOLV>
15.0429

>  <SCORE.INTER.VDW>
-11.4267

>  <SCORE.INTER.norm>
-0.464315

>  <SCORE.INTRA>
2.51455

>  <SCORE.INTRA.DIHEDRAL>
-2.85261

>  <SCORE.INTRA.DIHEDRAL.0>
4.88619

>  <SCORE.INTRA.POLAR>
0

>  <SCORE.INTRA.POLAR.0>
0

>  <SCORE.INTRA.REPUL>
0

>  <SCORE.INTRA.REPUL.0>
0

>  <SCORE.INTRA.SOLV>
5.15034

>  <SCORE.INTRA.SOLV.lig_0>
-73.8187

>  <SCORE.INTRA.VDW>
1.36568

>  <SCORE.INTRA.VDW.0>
-1.32335

>  <SCORE.INTRA.norm>
0.114298

>  <SCORE.RESTR>
0

>  <SCORE.RESTR.CAVITY>
0

>  <SCORE.RESTR.norm>
0

>  <SCORE.SYSTEM>
0

>  <SCORE.SYSTEM.CONST>
0

>  <SCORE.SYSTEM.DIHEDRAL>
0

>  <SCORE.SYSTEM.SOLV>
0

>  <SCORE.SYSTEM.norm>
0

>  <SCORE.heavy>
22

>  <SCORE.norm>
-0.350017

>  <RMSD>
2.676

$$$$
2fcx_lig
 OpenBabel11021811433D
libRbt.so/2013.1/901 2013/11/27
 22 23  0  0  0  0  0  0  0  0999 V2000
   28.0703   13.1199    9.8555 N   0  0  0  0  0  0  0  0  0  0  0  0
   27.3151    8.4548   11.1748 N   0  0  0  0  0  0  0  0  0  0  0  0
   29.5907    6.4083   17.9139 N   0  0  0  0  0  0  0  0  0  0  0  0
   28.0413   11.8631   14.5712 O   0  0  0  0  0  0  0  0  0  0  0  0
   28.4201   11.4383   13.2591 C   0  0  2  0  0  0  0  0  0  0  0  0
   25.3661    9.5017   13.9773 N   0  0  0  0  0  0  0  0  0  0  0  0
   28.8833   13.6885   12.5660 O   0  0  0  0  0  0  0  0  0  0  0  0
   28.0979   12.5352   12.2416 C   0  0  1  0  0  0  0  0  0  0  0  0
   28.1985    9.0725   13.7931 O   0  0  0  0  0  0  0  0  0  0  0  0
   28.4312   12.0720   10.8215 C   0  0  1  0  0  0  0  0  0  0  0  0
   27.9521    6.8877   14.6039 O   0  0  0  0  0  0  0  0  0  0  0  0
   27.6663   10.7888   10.4802 C   0  0  0  0  0  0  0  0  0  0  0  0
   27.4611    8.0141   18.0927 O   0  0  0  0  0  0  0  0  0  0  0  0
   28.0414    9.6946   11.4836 C   0  0  1  0  0  0  0  0  0  0  0  0
   25.1830    9.1125   16.8144 O   0  0  0  0  0  0  0  0  0  0  0  0
   27.7250   10.1135   12.9224 C   0  0  2  0  0  0  0  0  0  0  0  0
   27.2957    7.9585   13.9006 C   0  0  1  0  0  0  0  0  0  0  0  0
   28.3129    7.2112   15.9619 C   0  0  2  0  0  0  0  0  0  0  0  0
   28.9700    6.0082   16.6423 C   0  0  0  0  0  0  0  0  0  0  0  0
   27.0780    7.6096   16.7746 C   0  0  2  0  0  0  0  0  0  0  0  0
   26.3699    8.7806   16.0914 C   0  0  1  0  0  0  0  0  0  0  0  0
   26.0278    8.3783   14.6544 C   0  0  1  0  0  0  0  0  0  0  0  0
  5  4  1  1  0  0  0
  5  8  1  0  0  0  0
  5 16  1  0  0  0  0
  8  7  1  1  0  0  0
  8 10  1  0  0  0  0
 10  1  1  6  0  0  0
 10 12  1  0  0  0  0
 11 18  1  0  0  0  0
 12 14  1  0  0  0  0
 14  2  1  6  0  0  0
 14 16  1  0  0  0  0
 16  9  1  1  0  0  0
 17  9  1  1  0  0  0
 17 11  1  0  0  0  0
 17 22  1  0  0  0  0
 18 19  1  1  0  0  0
 18 20  1  0  0  0  0
 19  3  1  0  0  0  0
 20 13  1  1  0  0  0
 20 21  1  0  0  0  0
 21 15  1  1  0  0  0
 21 22  1  0  0  0  0
 22  6  1  6  0  0  0
M  END
>  <CHROM.1>
158.35712920,170.45013101,168.08834071,27.66007854,9.49485122,14.07425331
-1.12354856,-1.43165182,2.73416673

>  <Name>
2fcx_lig

>  <RI>
1.55453e+07

>  <Rbt.Current_Directory>
/home/itssahil/PROJECTS/Mol_Feturizer/New_Systems/rnas/2fcx

>  <Rbt.Executable>
rbdock ($Id: //depot/dev/client3/rdock/2013.1/src/exe/rbdock.cxx#4 $)

>  <Rbt.Library>
libRbt.so (2013.1, Build901 2013/11/27)

>  <Rbt.Parameter_File>
/export/apps/rDock/src/rDock_2013.1_src/data/scripts/dock_solv.prm

>  <Rbt.Receptor>
prm/pocket_docking_4.prm

>  <SCORE>
-12.5873

>  <SCORE.INTER>
-15.1959

>  <SCORE.INTER.CONST>
1

>  <SCORE.INTER.POLAR>
-1.81094

>  <SCORE.INTER.ROT>
3

>  <SCORE.INTER.SOLV>
11.0609

>  <SCORE.INTER.VDW>
-13.3811

>  <SCORE.INTER.norm>
-0.690725

>  <SCORE.INTRA>
2.60865

>  <SCORE.INTRA.DIHEDRAL>
-1.86079

>  <SCORE.INTRA.DIHEDRAL.0>
4.88619

>  <SCORE.INTRA.POLAR>
0

>  <SCORE.INTRA.POLAR.0>
0

>  <SCORE.INTRA.REPUL>
0

>  <SCORE.INTRA.REPUL.0>
0

>  <SCORE.INTRA.SOLV>
4.60663

>  <SCORE.INTRA.SOLV.lig_0>
-73.8187

>  <SCORE.INTRA.VDW>
1.23574

>  <SCORE.INTRA.VDW.0>
-1.32335

>  <SCORE.INTRA.norm>
0.118575

>  <SCORE.RESTR>
0

>  <SCORE.RESTR.CAVITY>
0

>  <SCORE.RESTR.norm>
0

>  <SCORE.SYSTEM>
0

>  <SCORE.SYSTEM.CONST>
0

>  <SCORE.SYSTEM.DIHEDRAL>
0

>  <SCORE.SYSTEM.SOLV>
0

>  <SCORE.SYSTEM.norm>
0

>  <SCORE.heavy>
22

>  <SCORE.norm>
-0.57215

>  <RMSD>
2.679

$$$$
2fcx_lig
 OpenBabel11021811433D
libRbt.so/2013.1/901 2013/11/27
 22 23  0  0  0  0  0  0  0  0999 V2000
   27.8782   13.0469    9.7988 N   0  0  0  0  0  0  0  0  0  0  0  0
   26.9999    8.4591   11.3006 N   0  0  0  0  0  0  0  0  0  0  0  0
   29.6578    6.4415   17.8801 N   0  0  0  0  0  0  0  0  0  0  0  0
   28.2392   11.8862   14.5255 O   0  0  0  0  0  0  0  0  0  0  0  0
   28.4646   11.4149   13.1941 C   0  0  2  0  0  0  0  0  0  0  0  0
   25.3277    9.4663   13.9792 N   0  0  0  0  0  0  0  0  0  0  0  0
   28.9810   13.6210   12.4037 O   0  0  0  0  0  0  0  0  0  0  0  0
   28.1057   12.5084   12.1851 C   0  0  1  0  0  0  0  0  0  0  0  0
   28.1665    9.0765   13.8058 O   0  0  0  0  0  0  0  0  0  0  0  0
   28.2733   11.9992   10.7516 C   0  0  1  0  0  0  0  0  0  0  0  0
   27.9469    6.8869   14.6114 O   0  0  0  0  0  0  0  0  0  0  0  0
   27.4095   10.7553   10.5174 C   0  0  0  0  0  0  0  0  0  0  0  0
   27.4263    7.9997   18.1002 O   0  0  0  0  0  0  0  0  0  0  0  0
   27.8198    9.6613   11.5072 C   0  0  1  0  0  0  0  0  0  0  0  0
   25.1385    9.0691   16.8148 O   0  0  0  0  0  0  0  0  0  0  0  0
   27.6684   10.1256   12.9588 C   0  0  2  0  0  0  0  0  0  0  0  0
   27.2786    7.9500   13.9074 C   0  0  1  0  0  0  0  0  0  0  0  0
   28.2977    7.2127   15.9714 C   0  0  2  0  0  0  0  0  0  0  0  0
   28.9685    6.0176   16.6522 C   0  0  0  0  0  0  0  0  0  0  0  0
   27.0542    7.5925   16.7799 C   0  0  2  0  0  0  0  0  0  0  0  0
   26.3328    8.7550   16.0960 C   0  0  1  0  0  0  0  0  0  0  0  0
   26.0021    8.3508   14.6568 C   0  0  1  0  0  0  0  0  0  0  0  0
  5  4  1  1  0  0  0
  5  8  1  0  0  0  0
  5 16  1  0  0  0  0
  8  7  1  1  0  0  0
  8 10  1  0  0  0  0
 10  1  1  6  0  0  0
 10 12  1  0  0  0  0
 11 18  1  0  0  0  0
 12 14  1  0  0  0  0
 14  2  1  1  0  0  0
 14 16  1  0  0  0  0
 16  9  1  1  0  0  0
 17  9  1  1  0  0  0
 17 11  1  0  0  0  0
 17 22  1  0  0  0  0
 18 19  1  1  0  0  0
 18 20  1  0  0  0  0
 19  3  1  0  0  0  0
 20 13  1  1  0  0  0
 20 21  1  0  0  0  0
 21 15  1  1  0  0  0
 21 22  1  0  0  0  0
 22  6  1  6  0  0  0
M  END
>  <CHROM.1>
164.89342923,171.77322880,164.18179381,27.61494786,9.47618151,14.06448671
1.17308688,-1.44540943,-1.25127334

>  <Name>
2fcx_lig

>  <RI>
1.55453e+07

>  <Rbt.Current_Directory>
/home/itssahil/PROJECTS/Mol_Feturizer/New_Systems/rnas/2fcx

>  <Rbt.Executable>
rbdock ($Id: //depot/dev/client3/rdock/2013.1/src/exe/rbdock.cxx#4 $)

>  <Rbt.Library>
libRbt.so (2013.1, Build901 2013/11/27)

>  <Rbt.Parameter_File>
/export/apps/rDock/src/rDock_2013.1_src/data/scripts/dock_solv.prm

>  <Rbt.Receptor>
prm/pocket_docking_4.prm

>  <SCORE>
-12.7998

>  <SCORE.INTER>
-15.7926

>  <SCORE.INTER.CONST>
1

>  <SCORE.INTER.POLAR>
-1.81094

>  <SCORE.INTER.ROT>
3

>  <SCORE.INTER.SOLV>
10.0644

>  <SCORE.INTER.VDW>
-13.4467

>  <SCORE.INTER.norm>
-0.717845

>  <SCORE.INTRA>
2.99278

>  <SCORE.INTRA.DIHEDRAL>
-2.61982

>  <SCORE.INTRA.DIHEDRAL.0>
4.88619

>  <SCORE.INTRA.POLAR>
0

>  <SCORE.INTRA.POLAR.0>
0

>  <SCORE.INTRA.REPUL>
0

>  <SCORE.INTRA.REPUL.0>
0

>  <SCORE.INTRA.SOLV>
4.89253

>  <SCORE.INTRA.SOLV.lig_0>
-73.8187

>  <SCORE.INTRA.VDW>
1.85643

>  <SCORE.INTRA.VDW.0>
-1.32335

>  <SCORE.INTRA.norm>
0.136036

>  <SCORE.RESTR>
0

>  <SCORE.RESTR.CAVITY>
0

>  <SCORE.RESTR.norm>
0

>  <SCORE.SYSTEM>
0

>  <SCORE.SYSTEM.CONST>
0

>  <SCORE.SYSTEM.DIHEDRAL>
0

>  <SCORE.SYSTEM.SOLV>
0

>  <SCORE.SYSTEM.norm>
0

>  <SCORE.heavy>
22

>  <SCORE.norm>
-0.581809

>  <RMSD>
2.720

$$$$
2fcx_lig
 OpenBabel11021811433D
libRbt.so/2013.1/901 2013/11/27
 22 23  0  0  0  0  0  0  0  0999 V2000
   28.3749   13.3760   10.2506 N   0  0  0  0  0  0  0  0  0  0  0  0
   28.9481   12.2349   14.9881 N   0  0  0  0  0  0  0  0  0  0  0  0
   28.4954   11.6725   19.0997 N   0  0  0  0  0  0  0  0  0  0  0  0
   28.5864    8.7070   11.6559 O   0  0  0  0  0  0  0  0  0  0  0  0
   28.1164   10.0082   12.0187 C   0  0  2  0  0  0  0  0  0  0  0  0
   28.1682    6.7246   14.8791 N   0  0  0  0  0  0  0  0  0  0  0  0
   27.7383   10.6099    9.7267 O   0  0  0  0  0  0  0  0  0  0  0  0
   28.4425   11.0097   10.9083 C   0  0  1  0  0  0  0  0  0  0  0  0
   28.2389    9.5555   14.4085 O   0  0  0  0  0  0  0  0  0  0  0  0
   28.0101   12.4222   11.3084 C   0  0  1  0  0  0  0  0  0  0  0  0
   29.8085    9.8338   16.1263 O   0  0  0  0  0  0  0  0  0  0  0  0
   28.6860   12.8417   12.6181 C   0  0  0  0  0  0  0  0  0  0  0  0
   27.2715    9.4512   18.7906 O   0  0  0  0  0  0  0  0  0  0  0  0
   28.3065   11.8513   13.7226 C   0  0  1  0  0  0  0  0  0  0  0  0
   27.2173    6.8889   17.5816 O   0  0  0  0  0  0  0  0  0  0  0  0
   28.7208   10.4205   13.3665 C   0  0  2  0  0  0  0  0  0  0  0  0
   29.2882    8.9113   15.1513 C   0  0  1  0  0  0  0  0  0  0  0  0
   28.8455   10.2461   17.1171 C   0  0  2  0  0  0  0  0  0  0  0  0
   29.4918   11.1939   18.1299 C   0  0  0  0  0  0  0  0  0  0  0  0
   28.2898    9.0372   17.8746 C   0  0  2  0  0  0  0  0  0  0  0  0
   27.6797    8.0459   16.8822 C   0  0  1  0  0  0  0  0  0  0  0  0
   28.7458    7.6604   15.8532 C   0  0  1  0  0  0  0  0  0  0  0  0
  5  4  1  6  0  0  0
  5  8  1  0  0  0  0
  5 16  1  0  0  0  0
  8  7  1  6  0  0  0
  8 10  1  0  0  0  0
 10  1  1  6  0  0  0
 10 12  1  0  0  0  0
 11 18  1  0  0  0  0
 12 14  1  0  0  0  0
 14  2  1  1  0  0  0
 14 16  1  0  0  0  0
 16  9  1  1  0  0  0
 17  9  1  1  0  0  0
 17 11  1  0  0  0  0
 17 22  1  0  0  0  0
 18 19  1  1  0  0  0
 18 20  1  0  0  0  0
 19  3  1  0  0  0  0
 20 13  1  1  0  0  0
 20 21  1  0  0  0  0
 21 15  1  1  0  0  0
 21 22  1  0  0  0  0
 22  6  1  6  0  0  0
M  END
>  <CHROM.1>
124.19903994,80.29042197,176.99541005,28.41906448,10.09167187,14.66704063
-1.53452590,1.42595163,1.88217048

>  <Name>
2fcx_lig

>  <RI>
0

>  <Rbt.Current_Directory>
/home/itssahil/PROJECTS/Mol_Feturizer/New_Systems/rnas/2fcx

>  <Rbt.Executable>
rbdock ($Id: //depot/dev/client3/rdock/2013.1/src/exe/rbdock.cxx#4 $)

>  <Rbt.Library>
libRbt.so (2013.1, Build901 2013/11/27)

>  <Rbt.Parameter_File>
/export/apps/rDock/src/rDock_2013.1_src/data/scripts/dock_solv.prm

>  <Rbt.Receptor>
prm/pocket_docking_6.prm

>  <SCORE>
-7.08103

>  <SCORE.INTER>
-10.7962

>  <SCORE.INTER.CONST>
1

>  <SCORE.INTER.POLAR>
-1.84218

>  <SCORE.INTER.ROT>
3

>  <SCORE.INTER.SOLV>
16.0613

>  <SCORE.INTER.VDW>
-12.0106

>  <SCORE.INTER.norm>
-0.490735

>  <SCORE.INTRA>
3.71515

>  <SCORE.INTRA.DIHEDRAL>
4.1159

>  <SCORE.INTRA.DIHEDRAL.0>
4.88619

>  <SCORE.INTRA.POLAR>
0

>  <SCORE.INTRA.POLAR.0>
0

>  <SCORE.INTRA.REPUL>
0

>  <SCORE.INTRA.REPUL.0>
0

>  <SCORE.INTRA.SOLV>
3.65794

>  <SCORE.INTRA.SOLV.lig_0>
-73.8187

>  <SCORE.INTRA.VDW>
-0.171771

>  <SCORE.INTRA.VDW.0>
-1.32335

>  <SCORE.INTRA.norm>
0.16887

>  <SCORE.RESTR>
0

>  <SCORE.RESTR.CAVITY>
0

>  <SCORE.RESTR.norm>
0

>  <SCORE.SYSTEM>
0

>  <SCORE.SYSTEM.CONST>
0

>  <SCORE.SYSTEM.DIHEDRAL>
0

>  <SCORE.SYSTEM.SOLV>
0

>  <SCORE.SYSTEM.norm>
0

>  <SCORE.heavy>
22

>  <SCORE.norm>
-0.321865

>  <RMSD>
2.880

$$$$
2fcx_lig
 OpenBabel11021811433D
libRbt.so/2013.1/901 2013/11/27
 22 23  0  0  0  0  0  0  0  0999 V2000
   27.9504   13.0155    9.4598 N   0  0  0  0  0  0  0  0  0  0  0  0
   28.3319    8.3203   10.8325 N   0  0  0  0  0  0  0  0  0  0  0  0
   29.8158    6.5059   16.6915 N   0  0  0  0  0  0  0  0  0  0  0  0
   26.3909   11.5971   13.8615 O   0  0  0  0  0  0  0  0  0  0  0  0
   27.3984   11.3957   12.8667 C   0  0  2  0  0  0  0  0  0  0  0  0
   24.9376    9.1399   13.1422 N   0  0  0  0  0  0  0  0  0  0  0  0
   27.3216   13.6975   12.1931 O   0  0  0  0  0  0  0  0  0  0  0  0
   27.1798   12.3605   11.6989 C   0  0  1  0  0  0  0  0  0  0  0  0
   27.7845    9.0775   13.5055 O   0  0  0  0  0  0  0  0  0  0  0  0
   28.2066   12.1126   10.5915 C   0  0  1  0  0  0  0  0  0  0  0  0
   27.6394    6.9748   14.5299 O   0  0  0  0  0  0  0  0  0  0  0  0
   28.1329   10.6618   10.1036 C   0  0  0  0  0  0  0  0  0  0  0  0
   26.3802    8.3794   17.7115 O   0  0  0  0  0  0  0  0  0  0  0  0
   28.4012    9.7187   11.2797 C   0  0  1  0  0  0  0  0  0  0  0  0
   24.2722    9.0248   15.9311 O   0  0  0  0  0  0  0  0  0  0  0  0
   27.3958    9.9300   12.4155 C   0  0  2  0  0  0  0  0  0  0  0  0
   27.0093    7.8696   13.5947 C   0  0  1  0  0  0  0  0  0  0  0  0
   27.7008    7.4822   15.8781 C   0  0  2  0  0  0  0  0  0  0  0  0
   28.3507    6.4549   16.8076 C   0  0  0  0  0  0  0  0  0  0  0  0
   26.2987    7.7933   16.4087 C   0  0  2  0  0  0  0  0  0  0  0  0
   25.6031    8.7821   15.4716 C   0  0  1  0  0  0  0  0  0  0  0  0
   25.5837    8.1913   14.0593 C   0  0  1  0  0  0  0  0  0  0  0  0
  5  4  1  1  0  0  0
  5  8  1  0  0  0  0
  5 16  1  0  0  0  0
  8  7  1  1  0  0  0
  8 10  1  0  0  0  0
 10  1  1  6  0  0  0
 10 12  1  0  0  0  0
 11 18  1  0  0  0  0
 12 14  1  0  0  0  0
 14  2  1  6  0  0  0
 14 16  1  0  0  0  0
 16  9  1  1  0  0  0
 17  9  1  1  0  0  0
 17 11  1  0  0  0  0
 17 22  1  0  0  0  0
 18 19  1  1  0  0  0
 18 20  1  0  0  0  0
 19  3  1  0  0  0  0
 20 13  1  1  0  0  0
 20 21  1  0  0  0  0
 21 15  1  1  0  0  0
 21 22  1  0  0  0  0
 22  6  1  6  0  0  0
M  END
>  <CHROM.1>
138.85000436,168.55417690,80.65983872,27.16791929,9.48588151,13.63743159
-1.44888479,-0.74044117,2.35175274

>  <Name>
2fcx_lig

>  <RI>
1.21945e+07

>  <Rbt.Current_Directory>
/home/itssahil/PROJECTS/Mol_Feturizer/New_Systems/rnas/2fcx

>  <Rbt.Executable>
rbdock ($Id: //depot/dev/client3/rdock/2013.1/src/exe/rbdock.cxx#4 $)

>  <Rbt.Library>
libRbt.so (2013.1, Build901 2013/11/27)

>  <Rbt.Parameter_File>
/export/apps/rDock/src/rDock_2013.1_src/data/scripts/dock_solv.prm

>  <Rbt.Receptor>
prm/pocket_docking_3.prm

>  <SCORE>
-11.5079

>  <SCORE.INTER>
-14.4021

>  <SCORE.INTER.CONST>
1

>  <SCORE.INTER.POLAR>
-2.1347

>  <SCORE.INTER.ROT>
3

>  <SCORE.INTER.SOLV>
17.8447

>  <SCORE.INTER.VDW>
-14.034

>  <SCORE.INTER.norm>
-0.654643

>  <SCORE.INTRA>
2.82062

>  <SCORE.INTRA.DIHEDRAL>
2.72021

>  <SCORE.INTRA.DIHEDRAL.0>
4.88619

>  <SCORE.INTRA.POLAR>
0

>  <SCORE.INTRA.POLAR.0>
0

>  <SCORE.INTRA.REPUL>
0

>  <SCORE.INTRA.REPUL.0>
0

>  <SCORE.INTRA.SOLV>
2.73792

>  <SCORE.INTRA.SOLV.lig_0>
-73.8187

>  <SCORE.INTRA.VDW>
0.0915483

>  <SCORE.INTRA.VDW.0>
-1.32335

>  <SCORE.INTRA.norm>
0.12821

>  <SCORE.RESTR>
0.0736532

>  <SCORE.RESTR.CAVITY>
0.0736532

>  <SCORE.RESTR.norm>
0.00334787

>  <SCORE.SYSTEM>
0

>  <SCORE.SYSTEM.CONST>
0

>  <SCORE.SYSTEM.DIHEDRAL>
0

>  <SCORE.SYSTEM.SOLV>
0

>  <SCORE.SYSTEM.norm>
0

>  <SCORE.heavy>
22

>  <SCORE.norm>
-0.523085

>  <RMSD>
2.886

$$$$
2fcx_lig
 OpenBabel11021811433D
libRbt.so/2013.1/901 2013/11/27
 22 23  0  0  0  0  0  0  0  0999 V2000
   27.5838   13.2049    9.3991 N   0  0  0  0  0  0  0  0  0  0  0  0
   28.2795    8.5504   10.7870 N   0  0  0  0  0  0  0  0  0  0  0  0
   29.0732    6.9370   17.7000 N   0  0  0  0  0  0  0  0  0  0  0  0
   25.9351   11.6458   13.7200 O   0  0  0  0  0  0  0  0  0  0  0  0
   27.0024   11.5311   12.7748 C   0  0  2  0  0  0  0  0  0  0  0  0
   24.6780    9.1189   13.3499 N   0  0  0  0  0  0  0  0  0  0  0  0
   26.7711   13.8220   12.0990 O   0  0  0  0  0  0  0  0  0  0  0  0
   26.7623   12.4800   11.5982 C   0  0  1  0  0  0  0  0  0  0  0  0
   27.5445    9.2493   13.4307 O   0  0  0  0  0  0  0  0  0  0  0  0
   27.8580   12.3210   10.5415 C   0  0  1  0  0  0  0  0  0  0  0  0
   27.6521    7.0613   14.2632 O   0  0  0  0  0  0  0  0  0  0  0  0
   27.9259   10.8711   10.0501 C   0  0  0  0  0  0  0  0  0  0  0  0
   26.6317    8.0835   17.6684 O   0  0  0  0  0  0  0  0  0  0  0  0
   28.2133    9.9479   11.2374 C   0  0  1  0  0  0  0  0  0  0  0  0
   24.3122    8.7121   16.1668 O   0  0  0  0  0  0  0  0  0  0  0  0
   27.1406   10.0720   12.3235 C   0  0  2  0  0  0  0  0  0  0  0  0
   26.8686    7.9810   13.4806 C   0  0  1  0  0  0  0  0  0  0  0  0
   27.8162    7.4540   15.6408 C   0  0  2  0  0  0  0  0  0  0  0  0
   28.6281    6.4047   16.4035 C   0  0  0  0  0  0  0  0  0  0  0  0
   26.4578    7.6072   16.3303 C   0  0  2  0  0  0  0  0  0  0  0  0
   25.6025    8.6152   15.5609 C   0  0  1  0  0  0  0  0  0  0  0  0
   25.4792    8.1485   14.1080 C   0  0  1  0  0  0  0  0  0  0  0  0
  5  4  1  1  0  0  0
  5  8  1  0  0  0  0
  5 16  1  0  0  0  0
  8  7  1  1  0  0  0
  8 10  1  0  0  0  0
 10  1  1  6  0  0  0
 10 12  1  0  0  0  0
 11 18  1  0  0  0  0
 12 14  1  0  0  0  0
 14  2  1  6  0  0  0
 14 16  1  0  0  0  0
 16  9  1  1  0  0  0
 17  9  1  1  0  0  0
 17 11  1  0  0  0  0
 17 22  1  0  0  0  0
 18 19  1  1  0  0  0
 18 20  1  0  0  0  0
 19  3  1  0  0  0  0
 20 13  1  1  0  0  0
 20 21  1  0  0  0  0
 21 15  1  1  0  0  0
 21 22  1  0  0  0  0
 22  6  1  6  0  0  0
M  END
>  <CHROM.1>
138.95909348,158.64624991,166.40547441,26.99220737,9.54328151,13.61895533
-1.51916045,-0.74641500,2.31060357

>  <Name>
2fcx_lig

>  <RI>
3.23342e+07

>  <Rbt.Current_Directory>
/home/itssahil/PROJECTS/Mol_Feturizer/New_Systems/rnas/2fcx

>  <Rbt.Executable>
rbdock ($Id: //depot/dev/client3/rdock/2013.1/src/exe/rbdock.cxx#4 $)

>  <Rbt.Library>
libRbt.so (2013.1, Build901 2013/11/27)

>  <Rbt.Parameter_File>
/export/apps/rDock/src/rDock_2013.1_src/data/scripts/dock_solv.prm

>  <Rbt.Receptor>
prm/pocket_docking_5.prm

>  <SCORE>
-14.5386

>  <SCORE.INTER>
-17.6474

>  <SCORE.INTER.CONST>
1

>  <SCORE.INTER.POLAR>
-2.21032

>  <SCORE.INTER.ROT>
3

>  <SCORE.INTER.SOLV>
13.421

>  <SCORE.INTER.VDW>
-14.4709

>  <SCORE.INTER.norm>
-0.802155

>  <SCORE.INTRA>
3.10878

>  <SCORE.INTRA.DIHEDRAL>
3.35963

>  <SCORE.INTRA.DIHEDRAL.0>
4.88619

>  <SCORE.INTRA.POLAR>
0

>  <SCORE.INTRA.POLAR.0>
0

>  <SCORE.INTRA.REPUL>
0

>  <SCORE.INTRA.REPUL.0>
0

>  <SCORE.INTRA.SOLV>
3.35481

>  <SCORE.INTRA.SOLV.lig_0>
-73.8187

>  <SCORE.INTRA.VDW>
-0.24844

>  <SCORE.INTRA.VDW.0>
-1.32335

>  <SCORE.INTRA.norm>
0.141308

>  <SCORE.RESTR>
0

>  <SCORE.RESTR.CAVITY>
0

>  <SCORE.RESTR.norm>
0

>  <SCORE.SYSTEM>
0

>  <SCORE.SYSTEM.CONST>
0

>  <SCORE.SYSTEM.DIHEDRAL>
0

>  <SCORE.SYSTEM.SOLV>
0

>  <SCORE.SYSTEM.norm>
0

>  <SCORE.heavy>
22

>  <SCORE.norm>
-0.660847

>  <RMSD>
3.019

$$$$
2fcx_lig
 OpenBabel11021811433D
libRbt.so/2013.1/901 2013/11/27
 22 23  0  0  0  0  0  0  0  0999 V2000
   27.5862   13.1665    9.3416 N   0  0  0  0  0  0  0  0  0  0  0  0
   28.2441    8.5299   10.8057 N   0  0  0  0  0  0  0  0  0  0  0  0
   29.0480    6.9542   17.6991 N   0  0  0  0  0  0  0  0  0  0  0  0
   25.8982   11.6840   13.6742 O   0  0  0  0  0  0  0  0  0  0  0  0
   26.9713   11.5484   12.7385 C   0  0  2  0  0  0  0  0  0  0  0  0
   24.6268    9.1626   13.3967 N   0  0  0  0  0  0  0  0  0  0  0  0
   26.7586   13.8299   12.0260 O   0  0  0  0  0  0  0  0  0  0  0  0
   26.7452   12.4804   11.5457 C   0  0  1  0  0  0  0  0  0  0  0  0
   27.4950    9.2737   13.4331 O   0  0  0  0  0  0  0  0  0  0  0  0
   27.8471   12.2987   10.4994 C   0  0  1  0  0  0  0  0  0  0  0  0
   27.6006    7.0877   14.2709 O   0  0  0  0  0  0  0  0  0  0  0  0
   27.9097   10.8410   10.0307 C   0  0  0  0  0  0  0  0  0  0  0  0
   26.6395    8.1275   17.6880 O   0  0  0  0  0  0  0  0  0  0  0  0
   28.1832    9.9345   11.2341 C   0  0  1  0  0  0  0  0  0  0  0  0
   24.3015    8.7672   16.2202 O   0  0  0  0  0  0  0  0  0  0  0  0
   27.1038   10.0817   12.3106 C   0  0  2  0  0  0  0  0  0  0  0  0
   26.8114    8.0103   13.4975 C   0  0  1  0  0  0  0  0  0  0  0  0
   27.7885    7.4836   15.6446 C   0  0  2  0  0  0  0  0  0  0  0  0
   28.6049    6.4312   16.3981 C   0  0  0  0  0  0  0  0  0  0  0  0
   26.4418    7.6481   16.3543 C   0  0  2  0  0  0  0  0  0  0  0  0
   25.5817    8.6596   15.5948 C   0  0  1  0  0  0  0  0  0  0  0  0
   25.4330    8.1892   14.1455 C   0  0  1  0  0  0  0  0  0  0  0  0
  5  4  1  1  0  0  0
  5  8  1  0  0  0  0
  5 16  1  0  0  0  0
  8  7  1  1  0  0  0
  8 10  1  0  0  0  0
 10  1  1  6  0  0  0
 10 12  1  0  0  0  0
 11 18  1  0  0  0  0
 12 14  1  0  0  0  0
 14  2  1  6  0  0  0
 14 16  1  0  0  0  0
 16  9  1  1  0  0  0
 17  9  1  1  0  0  0
 17 11  1  0  0  0  0
 17 22  1  0  0  0  0
 18 19  1  1  0  0  0
 18 20  1  0  0  0  0
 19  3  1  0  0  0  0
 20 13  1  1  0  0  0
 20 21  1  0  0  0  0
 21 15  1  1  0  0  0
 21 22  1  0  0  0  0
 22  6  1  6  0  0  0
M  END
>  <CHROM.1>
138.97774052,157.18154389,167.67084712,26.96525056,9.56072372,13.61503093
-1.51726217,-0.74558483,2.30183507

>  <Name>
2fcx_lig

>  <RI>
1.55453e+07

>  <Rbt.Current_Directory>
/home/itssahil/PROJECTS/Mol_Feturizer/New_Systems/rnas/2fcx

>  <Rbt.Executable>
rbdock ($Id: //depot/dev/client3/rdock/2013.1/src/exe/rbdock.cxx#4 $)

>  <Rbt.Library>
libRbt.so (2013.1, Build901 2013/11/27)

>  <Rbt.Parameter_File>
/export/apps/rDock/src/rDock_2013.1_src/data/scripts/dock_solv.prm

>  <Rbt.Receptor>
prm/pocket_docking_4.prm

>  <SCORE>
-14.5113

>  <SCORE.INTER>
-17.7028

>  <SCORE.INTER.CONST>
1

>  <SCORE.INTER.POLAR>
-2.19906

>  <SCORE.INTER.ROT>
3

>  <SCORE.INTER.SOLV>
13.3585

>  <SCORE.INTER.VDW>
-14.5245

>  <SCORE.INTER.norm>
-0.804671

>  <SCORE.INTRA>
3.19144

>  <SCORE.INTRA.DIHEDRAL>
3.4992

>  <SCORE.INTRA.DIHEDRAL.0>
4.88619

>  <SCORE.INTRA.POLAR>
0

>  <SCORE.INTRA.POLAR.0>
0

>  <SCORE.INTRA.REPUL>
0

>  <SCORE.INTRA.REPUL.0>
0

>  <SCORE.INTRA.SOLV>
3.3319

>  <SCORE.INTRA.SOLV.lig_0>
-73.8187

>  <SCORE.INTRA.VDW>
-0.224112

>  <SCORE.INTRA.VDW.0>
-1.32335

>  <SCORE.INTRA.norm>
0.145066

>  <SCORE.RESTR>
0

>  <SCORE.RESTR.CAVITY>
0

>  <SCORE.RESTR.norm>
0

>  <SCORE.SYSTEM>
0

>  <SCORE.SYSTEM.CONST>
0

>  <SCORE.SYSTEM.DIHEDRAL>
0

>  <SCORE.SYSTEM.SOLV>
0

>  <SCORE.SYSTEM.norm>
0

>  <SCORE.heavy>
22

>  <SCORE.norm>
-0.659605

>  <RMSD>
3.034

$$$$
2fcx_lig
 OpenBabel11021811433D
libRbt.so/2013.1/901 2013/11/27
 22 23  0  0  0  0  0  0  0  0999 V2000
   27.6488   13.2056    9.1802 N   0  0  0  0  0  0  0  0  0  0  0  0
   28.2639    8.5694   10.6639 N   0  0  0  0  0  0  0  0  0  0  0  0
   29.6157    6.8545   16.4763 N   0  0  0  0  0  0  0  0  0  0  0  0
   25.9275   11.7514   13.5093 O   0  0  0  0  0  0  0  0  0  0  0  0
   27.0043   11.6043   12.5795 C   0  0  2  0  0  0  0  0  0  0  0  0
   24.6970    9.0912   12.7486 N   0  0  0  0  0  0  0  0  0  0  0  0
   26.8126   13.8848   11.8580 O   0  0  0  0  0  0  0  0  0  0  0  0
   26.7913   12.5338   11.3824 C   0  0  1  0  0  0  0  0  0  0  0  0
   27.5072    9.3282   13.2849 O   0  0  0  0  0  0  0  0  0  0  0  0
   27.8972   12.3399   10.3423 C   0  0  1  0  0  0  0  0  0  0  0  0
   27.5291    7.2051   14.2767 O   0  0  0  0  0  0  0  0  0  0  0  0
   27.9510   10.8802    9.8792 C   0  0  0  0  0  0  0  0  0  0  0  0
   25.9377    8.4127   17.3896 O   0  0  0  0  0  0  0  0  0  0  0  0
   28.2115    9.9759   11.0871 C   0  0  1  0  0  0  0  0  0  0  0  0
   23.8825    8.8583   15.4903 O   0  0  0  0  0  0  0  0  0  0  0  0
   27.1278   10.1351   12.1575 C   0  0  2  0  0  0  0  0  0  0  0  0
   26.8631    8.0429   13.3139 C   0  0  1  0  0  0  0  0  0  0  0  0
   27.4547    7.6933   15.6313 C   0  0  2  0  0  0  0  0  0  0  0  0
   28.1551    6.7261   16.5882 C   0  0  0  0  0  0  0  0  0  0  0  0
   25.9980    7.8433   16.0782 C   0  0  2  0  0  0  0  0  0  0  0  0
   25.2569    8.7675   15.1106 C   0  0  1  0  0  0  0  0  0  0  0  0
   25.3858    8.2020   13.6937 C   0  0  1  0  0  0  0  0  0  0  0  0
  5  4  1  1  0  0  0
  5  8  1  0  0  0  0
  5 16  1  0  0  0  0
  8  7  1  1  0  0  0
  8 10  1  0  0  0  0
 10  1  1  6  0  0  0
 10 12  1  0  0  0  0
 11 18  1  0  0  0  0
 12 14  1  0  0  0  0
 14  2  1  6  0  0  0
 14 16  1  0  0  0  0
 16  9  1  1  0  0  0
 17  9  1  1  0  0  0
 17 11  1  0  0  0  0
 17 22  1  0  0  0  0
 18 19  1  1  0  0  0
 18 20  1  0  0  0  0
 19  3  1  0  0  0  0
 20 13  1  1  0  0  0
 20 21  1  0  0  0  0
 21 15  1  1  0  0  0
 21 22  1  0  0  0  0
 22  6  1  6  0  0  0
M  END
>  <CHROM.1>
141.89732353,166.60642653,75.72314533,26.88428776,9.63994830,13.34924571
-1.46598166,-0.62479552,2.34253580

>  <Name>
2fcx_lig

>  <RI>
1.55453e+07

>  <Rbt.Current_Directory>
/home/itssahil/PROJECTS/Mol_Feturizer/New_Systems/rnas/2fcx

>  <Rbt.Executable>
rbdock ($Id: //depot/dev/client3/rdock/2013.1/src/exe/rbdock.cxx#4 $)

>  <Rbt.Library>
libRbt.so (2013.1, Build901 2013/11/27)

>  <Rbt.Parameter_File>
/export/apps/rDock/src/rDock_2013.1_src/data/scripts/dock_solv.prm

>  <Rbt.Receptor>
prm/pocket_docking_4.prm

>  <SCORE>
-13.1411

>  <SCORE.INTER>
-15.428

>  <SCORE.INTER.CONST>
1

>  <SCORE.INTER.POLAR>
-2.20493

>  <SCORE.INTER.ROT>
3

>  <SCORE.INTER.SOLV>
16.1815

>  <SCORE.INTER.VDW>
-13.9294

>  <SCORE.INTER.norm>
-0.701272

>  <SCORE.INTRA>
2.2869

>  <SCORE.INTRA.DIHEDRAL>
1.8884

>  <SCORE.INTRA.DIHEDRAL.0>
4.88619

>  <SCORE.INTRA.POLAR>
0

>  <SCORE.INTRA.POLAR.0>
0

>  <SCORE.INTRA.REPUL>
0

>  <SCORE.INTRA.REPUL.0>
0

>  <SCORE.INTRA.SOLV>
2.65256

>  <SCORE.INTRA.SOLV.lig_0>
-73.8187

>  <SCORE.INTRA.VDW>
0.0164217

>  <SCORE.INTRA.VDW.0>
-1.32335

>  <SCORE.INTRA.norm>
0.10395

>  <SCORE.RESTR>
0

>  <SCORE.RESTR.CAVITY>
0

>  <SCORE.RESTR.norm>
0

>  <SCORE.SYSTEM>
0

>  <SCORE.SYSTEM.CONST>
0

>  <SCORE.SYSTEM.DIHEDRAL>
0

>  <SCORE.SYSTEM.SOLV>
0

>  <SCORE.SYSTEM.norm>
0

>  <SCORE.heavy>
22

>  <SCORE.norm>
-0.597321

>  <RMSD>
3.142

$$$$
2fcx_lig
 OpenBabel11021811433D
libRbt.so/2013.1/901 2013/11/27
 22 23  0  0  0  0  0  0  0  0999 V2000
   27.6707   13.2243    9.1656 N   0  0  0  0  0  0  0  0  0  0  0  0
   28.2372    8.5874   10.6666 N   0  0  0  0  0  0  0  0  0  0  0  0
   29.6038    6.8553   16.4242 N   0  0  0  0  0  0  0  0  0  0  0  0
   25.8857   11.7905   13.4757 O   0  0  0  0  0  0  0  0  0  0  0  0
   26.9731   11.6345   12.5599 C   0  0  2  0  0  0  0  0  0  0  0  0
   24.6323    9.1403   12.7854 N   0  0  0  0  0  0  0  0  0  0  0  0
   26.8052   13.9147   11.8312 O   0  0  0  0  0  0  0  0  0  0  0  0
   26.7813   12.5627   11.3582 C   0  0  1  0  0  0  0  0  0  0  0  0
   27.4524    9.3567   13.2762 O   0  0  0  0  0  0  0  0  0  0  0  0
   27.8989   12.3596   10.3326 C   0  0  1  0  0  0  0  0  0  0  0  0
   27.4814    7.2192   14.2363 O   0  0  0  0  0  0  0  0  0  0  0  0
   27.9491   10.8985    9.8731 C   0  0  0  0  0  0  0  0  0  0  0  0
   25.9498    8.3882   17.3937 O   0  0  0  0  0  0  0  0  0  0  0  0
   28.1886    9.9951   11.0861 C   0  0  1  0  0  0  0  0  0  0  0  0
   23.8642    8.8709   15.5370 O   0  0  0  0  0  0  0  0  0  0  0  0
   27.0924   10.1637   12.1425 C   0  0  2  0  0  0  0  0  0  0  0  0
   26.8028    8.0740   13.2977 C   0  0  1  0  0  0  0  0  0  0  0  0
   27.4327    7.6878   15.5990 C   0  0  2  0  0  0  0  0  0  0  0  0
   28.1449    6.7035   16.5294 C   0  0  0  0  0  0  0  0  0  0  0  0
   25.9847    7.8379   16.0733 C   0  0  2  0  0  0  0  0  0  0  0  0
   25.2314    8.7795   15.1322 C   0  0  1  0  0  0  0  0  0  0  0  0
   25.3331    8.2342   13.7053 C   0  0  1  0  0  0  0  0  0  0  0  0
  5  4  1  1  0  0  0
  5  8  1  0  0  0  0
  5 16  1  0  0  0  0
  8  7  1  1  0  0  0
  8 10  1  0  0  0  0
 10  1  1  6  0  0  0
 10 12  1  0  0  0  0
 11 18  1  0  0  0  0
 12 14  1  0  0  0  0
 14  2  1  6  0  0  0
 14 16  1  0  0  0  0
 16  9  1  1  0  0  0
 17  9  1  1  0  0  0
 17 11  1  0  0  0  0
 17 22  1  0  0  0  0
 18 19  1  1  0  0  0
 18 20  1  0  0  0  0
 19  3  1  0  0  0  0
 20 13  1  1  0  0  0
 20 21  1  0  0  0  0
 21 15  1  1  0  0  0
 21 22  1  0  0  0  0
 22  6  1  6  0  0  0
M  END
>  <CHROM.1>
142.07379458,164.57481271,77.44202336,26.86053335,9.65682191,13.33829274
-1.46181706,-0.62067561,2.34816389

>  <Name>
2fcx_lig

>  <RI>
1.55453e+07

>  <Rbt.Current_Directory>
/home/itssahil/PROJECTS/Mol_Feturizer/New_Systems/rnas/2fcx

>  <Rbt.Executable>
rbdock ($Id: //depot/dev/client3/rdock/2013.1/src/exe/rbdock.cxx#4 $)

>  <Rbt.Library>
libRbt.so (2013.1, Build901 2013/11/27)

>  <Rbt.Parameter_File>
/export/apps/rDock/src/rDock_2013.1_src/data/scripts/dock_solv.prm

>  <Rbt.Receptor>
prm/pocket_docking_4.prm

>  <SCORE>
-13.18

>  <SCORE.INTER>
-15.4805

>  <SCORE.INTER.CONST>
1

>  <SCORE.INTER.POLAR>
-2.22054

>  <SCORE.INTER.ROT>
3

>  <SCORE.INTER.SOLV>
16.3071

>  <SCORE.INTER.VDW>
-13.9542

>  <SCORE.INTER.norm>
-0.703659

>  <SCORE.INTRA>
2.30052

>  <SCORE.INTRA.DIHEDRAL>
2.30028

>  <SCORE.INTRA.DIHEDRAL.0>
4.88619

>  <SCORE.INTRA.POLAR>
0

>  <SCORE.INTRA.POLAR.0>
0

>  <SCORE.INTRA.REPUL>
0

>  <SCORE.INTRA.REPUL.0>
0

>  <SCORE.INTRA.SOLV>
2.52223

>  <SCORE.INTRA.SOLV.lig_0>
-73.8187

>  <SCORE.INTRA.VDW>
-0.110736

>  <SCORE.INTRA.VDW.0>
-1.32335

>  <SCORE.INTRA.norm>
0.104569

>  <SCORE.RESTR>
0

>  <SCORE.RESTR.CAVITY>
0

>  <SCORE.RESTR.norm>
0

>  <SCORE.SYSTEM>
0

>  <SCORE.SYSTEM.CONST>
0

>  <SCORE.SYSTEM.DIHEDRAL>
0

>  <SCORE.SYSTEM.SOLV>
0

>  <SCORE.SYSTEM.norm>
0

>  <SCORE.heavy>
22

>  <SCORE.norm>
-0.599089

>  <RMSD>
3.152

$$$$
2fcx_lig
 OpenBabel11021811433D
libRbt.so/2013.1/901 2013/11/27
 22 23  0  0  0  0  0  0  0  0999 V2000
   31.9751   13.8654   15.2222 N   0  0  0  0  0  0  0  0  0  0  0  0
   29.1227    9.9046   15.7232 N   0  0  0  0  0  0  0  0  0  0  0  0
   27.2751    8.2975   16.9615 N   0  0  0  0  0  0  0  0  0  0  0  0
   30.4208   11.4305   11.2885 O   0  0  0  0  0  0  0  0  0  0  0  0
   30.0590   11.8661   12.6018 C   0  0  2  0  0  0  0  0  0  0  0  0
   28.0906    8.5744   10.5130 N   0  0  0  0  0  0  0  0  0  0  0  0
   31.3728   13.8639   12.3994 O   0  0  0  0  0  0  0  0  0  0  0  0
   31.1935   12.6953   13.2082 C   0  0  1  0  0  0  0  0  0  0  0  0
   28.5178   10.0146   12.9592 O   0  0  0  0  0  0  0  0  0  0  0  0
   30.8542   13.1118   14.6412 C   0  0  1  0  0  0  0  0  0  0  0  0
   28.1924    8.0569   14.2056 O   0  0  0  0  0  0  0  0  0  0  0  0
   30.5740   11.8797   15.5082 C   0  0  0  0  0  0  0  0  0  0  0  0
   24.5203    8.1399   13.7692 O   0  0  0  0  0  0  0  0  0  0  0  0
   29.4057   11.0935   14.9068 C   0  0  1  0  0  0  0  0  0  0  0  0
   25.4016    7.7642   11.1023 O   0  0  0  0  0  0  0  0  0  0  0  0
   29.6998   10.6537   13.4695 C   0  0  2  0  0  0  0  0  0  0  0  0
   28.6077    8.5797   12.9302 C   0  0  1  0  0  0  0  0  0  0  0  0
   26.8182    8.3406   14.5373 C   0  0  2  0  0  0  0  0  0  0  0  0
   26.4541    7.7190   15.8874 C   0  0  0  0  0  0  0  0  0  0  0  0
   25.8721    7.7742   13.4750 C   0  0  2  0  0  0  0  0  0  0  0  0
   26.2431    8.3400   12.1032 C   0  0  1  0  0  0  0  0  0  0  0  0
   27.7126    8.0178   11.8190 C   0  0  1  0  0  0  0  0  0  0  0  0
  5  4  1  6  0  0  0
  5  8  1  0  0  0  0
  5 16  1  0  0  0  0
  8  7  1  6  0  0  0
  8 10  1  0  0  0  0
 10  1  1  1  0  0  0
 10 12  1  0  0  0  0
 11 18  1  0  0  0  0
 12 14  1  0  0  0  0
 14  2  1  1  0  0  0
 14 16  1  0  0  0  0
 16  9  1  6  0  0  0
 17  9  1  1  0  0  0
 17 11  1  0  0  0  0
 17 22  1  0  0  0  0
 18 19  1  1  0  0  0
 18 20  1  0  0  0  0
 19  3  1  0  0  0  0
 20 13  1  1  0  0  0
 20 21  1  0  0  0  0
 21 15  1  6  0  0  0
 21 22  1  0  0  0  0
 22  6  1  6  0  0  0
M  END
>  <CHROM.1>
136.60548613,86.94308232,62.14435133,28.54123404,9.99303238,13.57132047,0.05712817
0.79071331,1.58560912

>  <Name>
2fcx_lig

>  <RI>
1.55453e+07

>  <Rbt.Current_Directory>
/home/itssahil/PROJECTS/Mol_Feturizer/New_Systems/rnas/2fcx

>  <Rbt.Executable>
rbdock ($Id: //depot/dev/client3/rdock/2013.1/src/exe/rbdock.cxx#4 $)

>  <Rbt.Library>
libRbt.so (2013.1, Build901 2013/11/27)

>  <Rbt.Parameter_File>
/export/apps/rDock/src/rDock_2013.1_src/data/scripts/dock_solv.prm

>  <Rbt.Receptor>
prm/pocket_docking_4.prm

>  <SCORE>
-7.94299

>  <SCORE.INTER>
-11.7089

>  <SCORE.INTER.CONST>
1

>  <SCORE.INTER.POLAR>
-1.5679

>  <SCORE.INTER.ROT>
3

>  <SCORE.INTER.SOLV>
10.1221

>  <SCORE.INTER.VDW>
-11.5537

>  <SCORE.INTER.norm>
-0.532224

>  <SCORE.INTRA>
3.76593

>  <SCORE.INTRA.DIHEDRAL>
4.085

>  <SCORE.INTRA.DIHEDRAL.0>
4.88619

>  <SCORE.INTRA.POLAR>
0

>  <SCORE.INTRA.POLAR.0>
0

>  <SCORE.INTRA.REPUL>
0

>  <SCORE.INTRA.REPUL.0>
0

>  <SCORE.INTRA.SOLV>
4.42746

>  <SCORE.INTRA.SOLV.lig_0>
-73.8187

>  <SCORE.INTRA.VDW>
-0.490296

>  <SCORE.INTRA.VDW.0>
-1.32335

>  <SCORE.INTRA.norm>
0.171179

>  <SCORE.RESTR>
0

>  <SCORE.RESTR.CAVITY>
0

>  <SCORE.RESTR.norm>
0

>  <SCORE.SYSTEM>
0

>  <SCORE.SYSTEM.CONST>
0

>  <SCORE.SYSTEM.DIHEDRAL>
0

>  <SCORE.SYSTEM.SOLV>
0

>  <SCORE.SYSTEM.norm>
0

>  <SCORE.heavy>
22

>  <SCORE.norm>
-0.361045

>  <RMSD>
3.177

$$$$
2fcx_lig
 OpenBabel11021811433D
libRbt.so/2013.1/901 2013/11/27
 22 23  0  0  0  0  0  0  0  0999 V2000
   28.6526   11.0964    9.5989 N   0  0  0  0  0  0  0  0  0  0  0  0
   30.3428   11.9723   14.1211 N   0  0  0  0  0  0  0  0  0  0  0  0
   28.3389   12.0092   19.7714 N   0  0  0  0  0  0  0  0  0  0  0  0
   27.8408    7.9019   13.1982 O   0  0  0  0  0  0  0  0  0  0  0  0
   27.9441    9.2929   12.8823 C   0  0  2  0  0  0  0  0  0  0  0  0
   28.6695    7.0604   15.5098 N   0  0  0  0  0  0  0  0  0  0  0  0
   27.0518    8.9522   10.6810 O   0  0  0  0  0  0  0  0  0  0  0  0
   28.1882    9.4712   11.3819 C   0  0  1  0  0  0  0  0  0  0  0  0
   28.6863    9.9044   15.1198 O   0  0  0  0  0  0  0  0  0  0  0  0
   28.3719   10.9503   11.0347 C   0  0  1  0  0  0  0  0  0  0  0  0
   30.0498   10.1866   17.0047 O   0  0  0  0  0  0  0  0  0  0  0  0
   29.5306   11.5520   11.8370 C   0  0  0  0  0  0  0  0  0  0  0  0
   27.2557    9.6421   19.3665 O   0  0  0  0  0  0  0  0  0  0  0  0
   29.2404   11.4032   13.3331 C   0  0  1  0  0  0  0  0  0  0  0  0
   27.4270    7.1151   18.0958 O   0  0  0  0  0  0  0  0  0  0  0  0
   29.0490    9.9362   13.7293 C   0  0  2  0  0  0  0  0  0  0  0  0
   29.6723    9.2752   15.9563 C   0  0  1  0  0  0  0  0  0  0  0  0
   28.9709   10.5376   17.8946 C   0  0  2  0  0  0  0  0  0  0  0  0
   29.4687   11.4774   18.9948 C   0  0  0  0  0  0  0  0  0  0  0  0
   28.3816    9.2893   18.5570 C   0  0  2  0  0  0  0  0  0  0  0  0
   27.9192    8.3066   17.4799 C   0  0  1  0  0  0  0  0  0  0  0  0
   29.1036    7.9871   16.5639 C   0  0  1  0  0  0  0  0  0  0  0  0
  5  4  1  6  0  0  0
  5  8  1  0  0  0  0
  5 16  1  0  0  0  0
  8  7  1  6  0  0  0
  8 10  1  0  0  0  0
 10  1  1  6  0  0  0
 10 12  1  0  0  0  0
 11 18  1  0  0  0  0
 12 14  1  0  0  0  0
 14  2  1  1  0  0  0
 14 16  1  0  0  0  0
 16  9  1  1  0  0  0
 17  9  1  6  0  0  0
 17 11  1  0  0  0  0
 17 22  1  0  0  0  0
 18 19  1  1  0  0  0
 18 20  1  0  0  0  0
 19  3  1  0  0  0  0
 20 13  1  6  0  0  0
 20 21  1  0  0  0  0
 21 15  1  1  0  0  0
 21 22  1  0  0  0  0
 22  6  1  6  0  0  0
M  END
>  <CHROM.1>
125.06255865,124.75225808,170.84972676,28.61946330,9.75975248,15.12143519
-1.57756719,1.17865214,1.64559856

>  <Name>
2fcx_lig

>  <RI>
3.23342e+07

>  <Rbt.Current_Directory>
/home/itssahil/PROJECTS/Mol_Feturizer/New_Systems/rnas/2fcx

>  <Rbt.Executable>
rbdock ($Id: //depot/dev/client3/rdock/2013.1/src/exe/rbdock.cxx#4 $)

>  <Rbt.Library>
libRbt.so (2013.1, Build901 2013/11/27)

>  <Rbt.Parameter_File>
/export/apps/rDock/src/rDock_2013.1_src/data/scripts/dock_solv.prm

>  <Rbt.Receptor>
prm/pocket_docking_5.prm

>  <SCORE>
-8.29801

>  <SCORE.INTER>
-14.3653

>  <SCORE.INTER.CONST>
1

>  <SCORE.INTER.POLAR>
-2.16023

>  <SCORE.INTER.ROT>
3

>  <SCORE.INTER.SOLV>
13.908

>  <SCORE.INTER.VDW>
-12.6121

>  <SCORE.INTER.norm>
-0.652967

>  <SCORE.INTRA>
6.06727

>  <SCORE.INTRA.DIHEDRAL>
9.58334

>  <SCORE.INTRA.DIHEDRAL.0>
4.88619

>  <SCORE.INTRA.POLAR>
0

>  <SCORE.INTRA.POLAR.0>
0

>  <SCORE.INTRA.REPUL>
0

>  <SCORE.INTRA.REPUL.0>
0

>  <SCORE.INTRA.SOLV>
2.91348

>  <SCORE.INTRA.SOLV.lig_0>
-73.8187

>  <SCORE.INTRA.VDW>
-0.18114

>  <SCORE.INTRA.VDW.0>
-1.32335

>  <SCORE.INTRA.norm>
0.275785

>  <SCORE.RESTR>
0

>  <SCORE.RESTR.CAVITY>
0

>  <SCORE.RESTR.norm>
0

>  <SCORE.SYSTEM>
0

>  <SCORE.SYSTEM.CONST>
0

>  <SCORE.SYSTEM.DIHEDRAL>
0

>  <SCORE.SYSTEM.SOLV>
0

>  <SCORE.SYSTEM.norm>
0

>  <SCORE.heavy>
22

>  <SCORE.norm>
-0.377182

>  <RMSD>
3.302

$$$$
2fcx_lig
 OpenBabel11021811433D
libRbt.so/2013.1/901 2013/11/27
 22 23  0  0  0  0  0  0  0  0999 V2000
   28.5879   10.8721    9.5662 N   0  0  0  0  0  0  0  0  0  0  0  0
   30.3577   11.8517   14.0364 N   0  0  0  0  0  0  0  0  0  0  0  0
   28.3114   11.9778   19.7650 N   0  0  0  0  0  0  0  0  0  0  0  0
   27.7614    7.8074   13.2734 O   0  0  0  0  0  0  0  0  0  0  0  0
   27.8885    9.1856   12.9131 C   0  0  2  0  0  0  0  0  0  0  0  0
   28.6669    7.0093   15.5329 N   0  0  0  0  0  0  0  0  0  0  0  0
   26.9592    8.7957   10.7354 O   0  0  0  0  0  0  0  0  0  0  0  0
   28.1154    9.3125   11.4049 C   0  0  1  0  0  0  0  0  0  0  0  0
   28.6737    9.8502   15.1206 O   0  0  0  0  0  0  0  0  0  0  0  0
   28.3241   10.7761   11.0094 C   0  0  1  0  0  0  0  0  0  0  0  0
   30.0328   10.1523   17.0056 O   0  0  0  0  0  0  0  0  0  0  0  0
   29.5057   11.3782   11.7774 C   0  0  0  0  0  0  0  0  0  0  0  0
   27.2367    9.6158   19.3668 O   0  0  0  0  0  0  0  0  0  0  0  0
   29.2333   11.2815   13.2811 C   0  0  1  0  0  0  0  0  0  0  0  0
   27.4196    7.0795   18.1162 O   0  0  0  0  0  0  0  0  0  0  0  0
   29.0177    9.8317   13.7251 C   0  0  2  0  0  0  0  0  0  0  0  0
   29.6606    9.2313   15.9637 C   0  0  1  0  0  0  0  0  0  0  0  0
   28.9511   10.5061   17.8908 C   0  0  2  0  0  0  0  0  0  0  0  0
   29.4434   11.4564   18.9846 C   0  0  0  0  0  0  0  0  0  0  0  0
   28.3653    9.2608   18.5619 C   0  0  2  0  0  0  0  0  0  0  0  0
   27.9085    8.2680   17.4918 C   0  0  1  0  0  0  0  0  0  0  0  0
   29.0957    7.9458   16.5804 C   0  0  1  0  0  0  0  0  0  0  0  0
  5  4  1  1  0  0  0
  5  8  1  0  0  0  0
  5 16  1  0  0  0  0
  8  7  1  6  0  0  0
  8 10  1  0  0  0  0
 10  1  1  6  0  0  0
 10 12  1  0  0  0  0
 11 18  1  0  0  0  0
 12 14  1  0  0  0  0
 14  2  1  1  0  0  0
 14 16  1  0  0  0  0
 16  9  1  1  0  0  0
 17  9  1  6  0  0  0
 17 11  1  0  0  0  0
 17 22  1  0  0  0  0
 18 19  1  1  0  0  0
 18 20  1  0  0  0  0
 19  3  1  0  0  0  0
 20 13  1  6  0  0  0
 20 21  1  0  0  0  0
 21 15  1  1  0  0  0
 21 22  1  0  0  0  0
 22  6  1  6  0  0  0
M  END
>  <CHROM.1>
125.28175264,126.76187953,171.50721459,28.59003215,9.67527714,15.12196857
-1.59046897,1.16496890,1.63805233

>  <Name>
2fcx_lig

>  <RI>
3.23342e+07

>  <Rbt.Current_Directory>
/home/itssahil/PROJECTS/Mol_Feturizer/New_Systems/rnas/2fcx

>  <Rbt.Executable>
rbdock ($Id: //depot/dev/client3/rdock/2013.1/src/exe/rbdock.cxx#4 $)

>  <Rbt.Library>
libRbt.so (2013.1, Build901 2013/11/27)

>  <Rbt.Parameter_File>
/export/apps/rDock/src/rDock_2013.1_src/data/scripts/dock_solv.prm

>  <Rbt.Receptor>
prm/pocket_docking_5.prm

>  <SCORE>
-8.28159

>  <SCORE.INTER>
-14.3952

>  <SCORE.INTER.CONST>
1

>  <SCORE.INTER.POLAR>
-2.11964

>  <SCORE.INTER.ROT>
3

>  <SCORE.INTER.SOLV>
14.0669

>  <SCORE.INTER.VDW>
-12.8203

>  <SCORE.INTER.norm>
-0.654327

>  <SCORE.INTRA>
6.11361

>  <SCORE.INTRA.DIHEDRAL>
9.41921

>  <SCORE.INTRA.DIHEDRAL.0>
4.88619

>  <SCORE.INTRA.POLAR>
0

>  <SCORE.INTRA.POLAR.0>
0

>  <SCORE.INTRA.REPUL>
0

>  <SCORE.INTRA.REPUL.0>
0

>  <SCORE.INTRA.SOLV>
2.94561

>  <SCORE.INTRA.SOLV.lig_0>
-73.8187

>  <SCORE.INTRA.VDW>
-0.0687997

>  <SCORE.INTRA.VDW.0>
-1.32335

>  <SCORE.INTRA.norm>
0.277891

>  <SCORE.RESTR>
0

>  <SCORE.RESTR.CAVITY>
0

>  <SCORE.RESTR.norm>
0

>  <SCORE.SYSTEM>
0

>  <SCORE.SYSTEM.CONST>
0

>  <SCORE.SYSTEM.DIHEDRAL>
0

>  <SCORE.SYSTEM.SOLV>
0

>  <SCORE.SYSTEM.norm>
0

>  <SCORE.heavy>
22

>  <SCORE.norm>
-0.376436

>  <RMSD>
3.346

$$$$
2fcx_lig
 OpenBabel11021811433D
libRbt.so/2013.1/901 2013/11/27
 22 23  0  0  0  0  0  0  0  0999 V2000
   28.3084   14.0986   10.1212 N   0  0  0  0  0  0  0  0  0  0  0  0
   30.3991   13.8611   14.5537 N   0  0  0  0  0  0  0  0  0  0  0  0
   26.8643    8.9755   12.1317 N   0  0  0  0  0  0  0  0  0  0  0  0
   29.8255    9.8177   11.9076 O   0  0  0  0  0  0  0  0  0  0  0  0
   29.2278   11.0715   12.2487 C   0  0  2  0  0  0  0  0  0  0  0  0
   30.0172   11.0722   17.3911 N   0  0  0  0  0  0  0  0  0  0  0  0
   28.1118   11.2190   10.1295 O   0  0  0  0  0  0  0  0  0  0  0  0
   29.0249   11.9139   10.9871 C   0  0  1  0  0  0  0  0  0  0  0  0
   30.1016   11.0454   14.5218 O   0  0  0  0  0  0  0  0  0  0  0  0
   28.4508   13.2881   11.3395 C   0  0  1  0  0  0  0  0  0  0  0  0
   27.8616   10.3628   14.4308 O   0  0  0  0  0  0  0  0  0  0  0  0
   29.3693   14.0189   12.3248 C   0  0  0  0  0  0  0  0  0  0  0  0
   28.6684    6.8757   15.3642 O   0  0  0  0  0  0  0  0  0  0  0  0
   29.5182   13.1780   13.5958 C   0  0  1  0  0  0  0  0  0  0  0  0
   29.4284    8.2813   17.7045 O   0  0  0  0  0  0  0  0  0  0  0  0
   30.0911   11.7904   13.2926 C   0  0  2  0  0  0  0  0  0  0  0  0
   28.8425   11.0652   15.2161 C   0  0  1  0  0  0  0  0  0  0  0  0
   28.1591    8.9660   14.2320 C   0  0  2  0  0  0  0  0  0  0  0  0
   27.0500    8.2926   13.4208 C   0  0  0  0  0  0  0  0  0  0  0  0
   28.2850    8.2384   15.5733 C   0  0  2  0  0  0  0  0  0  0  0  0
   29.3541    8.9203   16.4287 C   0  0  1  0  0  0  0  0  0  0  0  0
   28.9872   10.3980   16.5893 C   0  0  1  0  0  0  0  0  0  0  0  0
  5  4  1  6  0  0  0
  5  8  1  0  0  0  0
  5 16  1  0  0  0  0
  8  7  1  6  0  0  0
  8 10  1  0  0  0  0
 10  1  1  6  0  0  0
 10 12  1  0  0  0  0
 11 18  1  0  0  0  0
 12 14  1  0  0  0  0
 14  2  1  1  0  0  0
 14 16  1  0  0  0  0
 16  9  1  1  0  0  0
 17  9  1  6  0  0  0
 17 11  1  0  0  0  0
 17 22  1  0  0  0  0
 18 19  1  6  0  0  0
 18 20  1  0  0  0  0
 19  3  1  0  0  0  0
 20 13  1  6  0  0  0
 20 21  1  0  0  0  0
 21 15  1  1  0  0  0
 21 22  1  0  0  0  0
 22  6  1  1  0  0  0
M  END
>  <CHROM.1>
-69.97364153,66.25032718,56.95771980,28.90736701,10.71282961,13.79888120
1.57842720,-1.11447393,-0.85458827

>  <Name>
2fcx_lig

>  <RI>
1.21945e+07

>  <Rbt.Current_Directory>
/home/itssahil/PROJECTS/Mol_Feturizer/New_Systems/rnas/2fcx

>  <Rbt.Executable>
rbdock ($Id: //depot/dev/client3/rdock/2013.1/src/exe/rbdock.cxx#4 $)

>  <Rbt.Library>
libRbt.so (2013.1, Build901 2013/11/27)

>  <Rbt.Parameter_File>
/export/apps/rDock/src/rDock_2013.1_src/data/scripts/dock_solv.prm

>  <Rbt.Receptor>
prm/pocket_docking_3.prm

>  <SCORE>
-12.0504

>  <SCORE.INTER>
-13.2572

>  <SCORE.INTER.CONST>
1

>  <SCORE.INTER.POLAR>
-2.16067

>  <SCORE.INTER.ROT>
3

>  <SCORE.INTER.SOLV>
10.7172

>  <SCORE.INTER.VDW>
-10.8083

>  <SCORE.INTER.norm>
-0.602599

>  <SCORE.INTRA>
1.20676

>  <SCORE.INTRA.DIHEDRAL>
-4.17168

>  <SCORE.INTRA.DIHEDRAL.0>
4.88619

>  <SCORE.INTRA.POLAR>
0

>  <SCORE.INTRA.POLAR.0>
0

>  <SCORE.INTRA.REPUL>
0

>  <SCORE.INTRA.REPUL.0>
0

>  <SCORE.INTRA.SOLV>
3.7329

>  <SCORE.INTRA.SOLV.lig_0>
-73.8187

>  <SCORE.INTRA.VDW>
1.42615

>  <SCORE.INTRA.VDW.0>
-1.32335

>  <SCORE.INTRA.norm>
0.0548525

>  <SCORE.RESTR>
0

>  <SCORE.RESTR.CAVITY>
0

>  <SCORE.RESTR.norm>
0

>  <SCORE.SYSTEM>
0

>  <SCORE.SYSTEM.CONST>
0

>  <SCORE.SYSTEM.DIHEDRAL>
0

>  <SCORE.SYSTEM.SOLV>
0

>  <SCORE.SYSTEM.norm>
0

>  <SCORE.heavy>
22

>  <SCORE.norm>
-0.547747

>  <RMSD>
3.461

$$$$
2fcx_lig
 OpenBabel11021811433D
libRbt.so/2013.1/901 2013/11/27
 22 23  0  0  0  0  0  0  0  0999 V2000
   31.3796   14.1752   12.8141 N   0  0  0  0  0  0  0  0  0  0  0  0
   29.2403   10.1237   14.5700 N   0  0  0  0  0  0  0  0  0  0  0  0
   26.1833    9.4799   16.3513 N   0  0  0  0  0  0  0  0  0  0  0  0
   28.9589   11.1702    9.8260 O   0  0  0  0  0  0  0  0  0  0  0  0
   28.9722   11.7404   11.1376 C   0  0  2  0  0  0  0  0  0  0  0  0
   27.7437    7.6440   10.3018 N   0  0  0  0  0  0  0  0  0  0  0  0
   29.9483   13.7817   10.3387 O   0  0  0  0  0  0  0  0  0  0  0  0
   30.1458   12.7134   11.2723 C   0  0  1  0  0  0  0  0  0  0  0  0
   27.8130    9.8477   12.1402 O   0  0  0  0  0  0  0  0  0  0  0  0
   30.2189   13.2811   12.6917 C   0  0  1  0  0  0  0  0  0  0  0  0
   27.4452    8.3963   13.9430 O   0  0  0  0  0  0  0  0  0  0  0  0
   30.3452   12.1504   13.7182 C   0  0  0  0  0  0  0  0  0  0  0  0
   23.8484    8.0117   13.1705 O   0  0  0  0  0  0  0  0  0  0  0  0
   29.1366   11.2182   13.5946 C   0  0  1  0  0  0  0  0  0  0  0  0
   25.0491    6.8471   10.8831 O   0  0  0  0  0  0  0  0  0  0  0  0
   29.0218   10.6239   12.1877 C   0  0  2  0  0  0  0  0  0  0  0  0
   27.9778    8.4985   12.6095 C   0  0  1  0  0  0  0  0  0  0  0  0
   26.0294    8.6544   14.0312 C   0  0  2  0  0  0  0  0  0  0  0  0
   25.5439    8.4889   15.4730 C   0  0  0  0  0  0  0  0  0  0  0  0
   25.2418    7.6871   13.1433 C   0  0  2  0  0  0  0  0  0  0  0  0
   25.7395    7.7937   11.7009 C   0  0  1  0  0  0  0  0  0  0  0  0
   27.2463    7.5235   11.6788 C   0  0  1  0  0  0  0  0  0  0  0  0
  5  4  1  6  0  0  0
  5  8  1  0  0  0  0
  5 16  1  0  0  0  0
  8  7  1  6  0  0  0
  8 10  1  0  0  0  0
 10  1  1  6  0  0  0
 10 12  1  0  0  0  0
 11 18  1  0  0  0  0
 12 14  1  0  0  0  0
 14  2  1  1  0  0  0
 14 16  1  0  0  0  0
 16  9  1  1  0  0  0
 17  9  1  6  0  0  0
 17 11  1  0  0  0  0
 17 22  1  0  0  0  0
 18 19  1  1  0  0  0
 18 20  1  0  0  0  0
 19  3  1  0  0  0  0
 20 13  1  6  0  0  0
 20 21  1  0  0  0  0
 21 15  1  6  0  0  0
 21 22  1  0  0  0  0
 22  6  1  6  0  0  0
M  END
>  <CHROM.1>
153.88879457,102.56254204,63.38028260,27.84404262,9.98167716,12.58948543
-0.03911301,0.84035276,1.40378524

>  <Name>
2fcx_lig

>  <RI>
3.23342e+07

>  <Rbt.Current_Directory>
/home/itssahil/PROJECTS/Mol_Feturizer/New_Systems/rnas/2fcx

>  <Rbt.Executable>
rbdock ($Id: //depot/dev/client3/rdock/2013.1/src/exe/rbdock.cxx#4 $)

>  <Rbt.Library>
libRbt.so (2013.1, Build901 2013/11/27)

>  <Rbt.Parameter_File>
/export/apps/rDock/src/rDock_2013.1_src/data/scripts/dock_solv.prm

>  <Rbt.Receptor>
prm/pocket_docking_5.prm

>  <SCORE>
-9.4775

>  <SCORE.INTER>
-12.7767

>  <SCORE.INTER.CONST>
1

>  <SCORE.INTER.POLAR>
-1.75858

>  <SCORE.INTER.ROT>
3

>  <SCORE.INTER.SOLV>
11.1589

>  <SCORE.INTER.VDW>
-11.9755

>  <SCORE.INTER.norm>
-0.58076

>  <SCORE.INTRA>
3.29377

>  <SCORE.INTRA.DIHEDRAL>
3.83203

>  <SCORE.INTRA.DIHEDRAL.0>
4.88619

>  <SCORE.INTRA.POLAR>
0

>  <SCORE.INTRA.POLAR.0>
0

>  <SCORE.INTRA.REPUL>
0

>  <SCORE.INTRA.REPUL.0>
0

>  <SCORE.INTRA.SOLV>
2.84467

>  <SCORE.INTRA.SOLV.lig_0>
-73.8187

>  <SCORE.INTRA.VDW>
-0.0445806

>  <SCORE.INTRA.VDW.0>
-1.32335

>  <SCORE.INTRA.norm>
0.149717

>  <SCORE.RESTR>
0.00544707

>  <SCORE.RESTR.CAVITY>
0.00544707

>  <SCORE.RESTR.norm>
0.000247594

>  <SCORE.SYSTEM>
0

>  <SCORE.SYSTEM.CONST>
0

>  <SCORE.SYSTEM.DIHEDRAL>
0

>  <SCORE.SYSTEM.SOLV>
0

>  <SCORE.SYSTEM.norm>
0

>  <SCORE.heavy>
22

>  <SCORE.norm>
-0.430796

>  <RMSD>
3.558

$$$$
2fcx_lig
 OpenBabel11021811433D
libRbt.so/2013.1/901 2013/11/27
 22 23  0  0  0  0  0  0  0  0999 V2000
   31.3846   14.2162   12.8210 N   0  0  0  0  0  0  0  0  0  0  0  0
   29.2565   10.1563   14.5712 N   0  0  0  0  0  0  0  0  0  0  0  0
   26.2004    9.5005   16.3517 N   0  0  0  0  0  0  0  0  0  0  0  0
   28.9695   11.2103    9.8292 O   0  0  0  0  0  0  0  0  0  0  0  0
   28.9822   11.7782   11.1417 C   0  0  2  0  0  0  0  0  0  0  0  0
   27.7689    7.6773   10.3029 N   0  0  0  0  0  0  0  0  0  0  0  0
   29.9527   13.8234   10.3458 O   0  0  0  0  0  0  0  0  0  0  0  0
   30.1535   12.7539   11.2774 C   0  0  1  0  0  0  0  0  0  0  0  0
   27.8283    9.8809   12.1417 O   0  0  0  0  0  0  0  0  0  0  0  0
   30.2260   13.3194   12.6977 C   0  0  1  0  0  0  0  0  0  0  0  0
   27.4614    8.4282   13.9436 O   0  0  0  0  0  0  0  0  0  0  0  0
   30.3557   12.1872   13.7222 C   0  0  0  0  0  0  0  0  0  0  0  0
   23.8672    8.0333   13.1644 O   0  0  0  0  0  0  0  0  0  0  0  0
   29.1494   11.2522   13.5977 C   0  0  1  0  0  0  0  0  0  0  0  0
   25.0754    6.8725   10.8790 O   0  0  0  0  0  0  0  0  0  0  0  0
   29.0353   10.6600   12.1899 C   0  0  2  0  0  0  0  0  0  0  0  0
   27.9962    8.5321   12.6111 C   0  0  1  0  0  0  0  0  0  0  0  0
   26.0447    8.6822   14.0293 C   0  0  2  0  0  0  0  0  0  0  0  0
   25.5570    8.5150   15.4701 C   0  0  0  0  0  0  0  0  0  0  0  0
   25.2615    7.7128   13.1397 C   0  0  2  0  0  0  0  0  0  0  0  0
   25.7616    7.8210   11.6983 C   0  0  1  0  0  0  0  0  0  0  0  0
   27.2692    7.5552   11.6790 C   0  0  1  0  0  0  0  0  0  0  0  0
  5  4  1  6  0  0  0
  5  8  1  0  0  0  0
  5 16  1  0  0  0  0
  8  7  1  6  0  0  0
  8 10  1  0  0  0  0
 10  1  1  6  0  0  0
 10 12  1  0  0  0  0
 11 18  1  0  0  0  0
 12 14  1  0  0  0  0
 14  2  1  1  0  0  0
 14 16  1  0  0  0  0
 16  9  1  1  0  0  0
 17  9  1  6  0  0  0
 17 11  1  0  0  0  0
 17 22  1  0  0  0  0
 18 19  1  1  0  0  0
 18 20  1  0  0  0  0
 19  3  1  0  0  0  0
 20 13  1  6  0  0  0
 20 21  1  0  0  0  0
 21 15  1  6  0  0  0
 21 22  1  0  0  0  0
 22  6  1  6  0  0  0
M  END
>  <CHROM.1>
154.00758272,102.64411217,62.91045612,27.85897269,10.01423058,12.59066633
-0.03799313,0.84280493,1.40429142

>  <Name>
2fcx_lig

>  <RI>
3.23342e+07

>  <Rbt.Current_Directory>
/home/itssahil/PROJECTS/Mol_Feturizer/New_Systems/rnas/2fcx

>  <Rbt.Executable>
rbdock ($Id: //depot/dev/client3/rdock/2013.1/src/exe/rbdock.cxx#4 $)

>  <Rbt.Library>
libRbt.so (2013.1, Build901 2013/11/27)

>  <Rbt.Parameter_File>
/export/apps/rDock/src/rDock_2013.1_src/data/scripts/dock_solv.prm

>  <Rbt.Receptor>
prm/pocket_docking_5.prm

>  <SCORE>
-9.40758

>  <SCORE.INTER>
-12.6987

>  <SCORE.INTER.CONST>
1

>  <SCORE.INTER.POLAR>
-1.73471

>  <SCORE.INTER.ROT>
3

>  <SCORE.INTER.SOLV>
11.1254

>  <SCORE.INTER.VDW>
-11.9919

>  <SCORE.INTER.norm>
-0.577213

>  <SCORE.INTRA>
3.28841

>  <SCORE.INTRA.DIHEDRAL>
3.81189

>  <SCORE.INTRA.DIHEDRAL.0>
4.88619

>  <SCORE.INTRA.POLAR>
0

>  <SCORE.INTRA.POLAR.0>
0

>  <SCORE.INTRA.REPUL>
0

>  <SCORE.INTRA.REPUL.0>
0

>  <SCORE.INTRA.SOLV>
2.8424

>  <SCORE.INTRA.SOLV.lig_0>
-73.8187

>  <SCORE.INTRA.VDW>
-0.0387404

>  <SCORE.INTRA.VDW.0>
-1.32335

>  <SCORE.INTRA.norm>
0.149473

>  <SCORE.RESTR>
0.00270279

>  <SCORE.RESTR.CAVITY>
0.00270279

>  <SCORE.RESTR.norm>
0.000122854

>  <SCORE.SYSTEM>
0

>  <SCORE.SYSTEM.CONST>
0

>  <SCORE.SYSTEM.DIHEDRAL>
0

>  <SCORE.SYSTEM.SOLV>
0

>  <SCORE.SYSTEM.norm>
0

>  <SCORE.heavy>
22

>  <SCORE.norm>
-0.427617

>  <RMSD>
3.559

$$$$
2fcx_lig
 OpenBabel11021811433D
libRbt.so/2013.1/901 2013/11/27
 22 23  0  0  0  0  0  0  0  0999 V2000
   29.1738   12.4937   10.0999 N   0  0  0  0  0  0  0  0  0  0  0  0
   27.7031    8.3904   12.3526 N   0  0  0  0  0  0  0  0  0  0  0  0
   24.3702    9.4944   15.6396 N   0  0  0  0  0  0  0  0  0  0  0  0
   30.0098   11.8603   14.8663 O   0  0  0  0  0  0  0  0  0  0  0  0
   29.9464   11.1970   13.6008 C   0  0  2  0  0  0  0  0  0  0  0  0
   30.5346    7.4761   16.6451 N   0  0  0  0  0  0  0  0  0  0  0  0
   30.7350   13.1430   12.4392 O   0  0  0  0  0  0  0  0  0  0  0  0
   29.6485   12.2110   12.4938 C   0  0  1  0  0  0  0  0  0  0  0  0
   29.3195    9.0570   14.5799 O   0  0  0  0  0  0  0  0  0  0  0  0
   29.5069   11.5101   11.1407 C   0  0  1  0  0  0  0  0  0  0  0  0
   27.9901   10.1606   16.1631 O   0  0  0  0  0  0  0  0  0  0  0  0
   28.4054   10.4463   11.1978 C   0  0  0  0  0  0  0  0  0  0  0  0
   25.6877    7.2903   16.5391 O   0  0  0  0  0  0  0  0  0  0  0  0
   28.7503    9.4191   12.2797 C   0  0  1  0  0  0  0  0  0  0  0  0
   28.1150    6.2044   17.5184 O   0  0  0  0  0  0  0  0  0  0  0  0
   28.9020   10.0753   13.6553 C   0  0  2  0  0  0  0  0  0  0  0  0
   29.2310    9.4605   15.9572 C   0  0  1  0  0  0  0  0  0  0  0  0
   26.8164    9.3559   15.9312 C   0  0  2  0  0  0  0  0  0  0  0  0
   25.5483   10.1668   16.2075 C   0  0  0  0  0  0  0  0  0  0  0  0
   26.8096    8.1252   16.8420 C   0  0  2  0  0  0  0  0  0  0  0  0
   28.0909    7.3187   16.6244 C   0  0  1  0  0  0  0  0  0  0  0  0
   29.2950    8.2312   16.8719 C   0  0  1  0  0  0  0  0  0  0  0  0
  5  4  1  1  0  0  0
  5  8  1  0  0  0  0
  5 16  1  0  0  0  0
  8  7  1  6  0  0  0
  8 10  1  0  0  0  0
 10  1  1  6  0  0  0
 10 12  1  0  0  0  0
 11 18  1  0  0  0  0
 12 14  1  0  0  0  0
 14  2  1  1  0  0  0
 14 16  1  0  0  0  0
 16  9  1  1  0  0  0
 17  9  1  6  0  0  0
 17 11  1  0  0  0  0
 17 22  1  0  0  0  0
 18 19  1  1  0  0  0
 18 20  1  0  0  0  0
 19  3  1  0  0  0  0
 20 13  1  6  0  0  0
 20 21  1  0  0  0  0
 21 15  1  1  0  0  0
 21 22  1  0  0  0  0
 22  6  1  6  0  0  0
M  END
>  <CHROM.1>
71.97416551,43.04231553,164.82992930,28.39012094,9.68315008,14.56056315,1.21202195
-0.11538085,-0.93489828

>  <Name>
2fcx_lig

>  <RI>
0

>  <Rbt.Current_Directory>
/home/itssahil/PROJECTS/Mol_Feturizer/New_Systems/rnas/2fcx

>  <Rbt.Executable>
rbdock ($Id: //depot/dev/client3/rdock/2013.1/src/exe/rbdock.cxx#4 $)

>  <Rbt.Library>
libRbt.so (2013.1, Build901 2013/11/27)

>  <Rbt.Parameter_File>
/export/apps/rDock/src/rDock_2013.1_src/data/scripts/dock_solv.prm

>  <Rbt.Receptor>
prm/pocket_docking_2.prm

>  <SCORE>
-4.4596

>  <SCORE.INTER>
-5.36023

>  <SCORE.INTER.CONST>
1

>  <SCORE.INTER.POLAR>
-0.297968

>  <SCORE.INTER.ROT>
3

>  <SCORE.INTER.SOLV>
20.57

>  <SCORE.INTER.VDW>
-15.0369

>  <SCORE.INTER.norm>
-0.243647

>  <SCORE.INTRA>
0.00294577

>  <SCORE.INTRA.DIHEDRAL>
-2.0698

>  <SCORE.INTRA.DIHEDRAL.0>
4.88619

>  <SCORE.INTRA.POLAR>
0

>  <SCORE.INTRA.POLAR.0>
0

>  <SCORE.INTRA.REPUL>
0

>  <SCORE.INTRA.REPUL.0>
0

>  <SCORE.INTRA.SOLV>
0.354899

>  <SCORE.INTRA.SOLV.lig_0>
-73.8187

>  <SCORE.INTRA.VDW>
0.860395

>  <SCORE.INTRA.VDW.0>
-1.32335

>  <SCORE.INTRA.norm>
0.000133899

>  <SCORE.RESTR>
0.897678

>  <SCORE.RESTR.CAVITY>
0.897678

>  <SCORE.RESTR.norm>
0.0408036

>  <SCORE.SYSTEM>
0

>  <SCORE.SYSTEM.CONST>
0

>  <SCORE.SYSTEM.DIHEDRAL>
0

>  <SCORE.SYSTEM.SOLV>
0

>  <SCORE.SYSTEM.norm>
0

>  <SCORE.heavy>
22

>  <SCORE.norm>
-0.202709

>  <RMSD>
3.568

$$$$
2fcx_lig
 OpenBabel11021811433D
libRbt.so/2013.1/901 2013/11/27
 22 23  0  0  0  0  0  0  0  0999 V2000
   29.1154   11.4081   10.1630 N   0  0  0  0  0  0  0  0  0  0  0  0
   27.9067    7.9161   13.3910 N   0  0  0  0  0  0  0  0  0  0  0  0
   24.3486    9.1004   15.8178 N   0  0  0  0  0  0  0  0  0  0  0  0
   29.8595   12.0966   14.9370 O   0  0  0  0  0  0  0  0  0  0  0  0
   29.8852   11.1266   13.8864 C   0  0  2  0  0  0  0  0  0  0  0  0
   30.5502    8.3592   17.8506 N   0  0  0  0  0  0  0  0  0  0  0  0
   30.5520   12.7662   12.2661 O   0  0  0  0  0  0  0  0  0  0  0  0
   29.5410   11.7925   12.5520 C   0  0  1  0  0  0  0  0  0  0  0  0
   29.4001    9.2667   15.3819 O   0  0  0  0  0  0  0  0  0  0  0  0
   29.4943   10.7573   11.4258 C   0  0  1  0  0  0  0  0  0  0  0  0
   27.7376   10.4350   16.5492 O   0  0  0  0  0  0  0  0  0  0  0  0
   28.4786    9.6561   11.7482 C   0  0  0  0  0  0  0  0  0  0  0  0
   25.8310    7.3624   17.3273 O   0  0  0  0  0  0  0  0  0  0  0  0
   28.8715    8.9750   13.0621 C   0  0  1  0  0  0  0  0  0  0  0  0
   28.2409    6.9115   18.7482 O   0  0  0  0  0  0  0  0  0  0  0  0
   28.9311    9.9738   14.2217 C   0  0  2  0  0  0  0  0  0  0  0  0
   29.0804    9.9212   16.6217 C   0  0  1  0  0  0  0  0  0  0  0  0
   26.7276    9.4184   16.3896 C   0  0  2  0  0  0  0  0  0  0  0  0
   25.3336   10.0490   16.3585 C   0  0  0  0  0  0  0  0  0  0  0  0
   26.7767    8.4141   17.5443 C   0  0  2  0  0  0  0  0  0  0  0  0
   28.1756    7.8017   17.6326 C   0  0  1  0  0  0  0  0  0  0  0  0
   29.1983    8.9306   17.7864 C   0  0  1  0  0  0  0  0  0  0  0  0
  5  4  1  1  0  0  0
  5  8  1  0  0  0  0
  5 16  1  0  0  0  0
  8  7  1  6  0  0  0
  8 10  1  0  0  0  0
 10  1  1  6  0  0  0
 10 12  1  0  0  0  0
 11 18  1  0  0  0  0
 12 14  1  0  0  0  0
 14  2  1  1  0  0  0
 14 16  1  0  0  0  0
 16  9  1  1  0  0  0
 17  9  1  6  0  0  0
 17 11  1  0  0  0  0
 17 22  1  0  0  0  0
 18 19  1  1  0  0  0
 18 20  1  0  0  0  0
 19  3  1  0  0  0  0
 20 13  1  6  0  0  0
 20 21  1  0  0  0  0
 21 15  1  1  0  0  0
 21 22  1  0  0  0  0
 22  6  1  6  0  0  0
M  END
>  <CHROM.1>
79.80432128,41.29806249,163.68537142,28.36461750,9.66035665,15.10476498,1.20512476
-0.31738511,-1.17983550

>  <Name>
2fcx_lig

>  <RI>
1.21945e+07

>  <Rbt.Current_Directory>
/home/itssahil/PROJECTS/Mol_Feturizer/New_Systems/rnas/2fcx

>  <Rbt.Executable>
rbdock ($Id: //depot/dev/client3/rdock/2013.1/src/exe/rbdock.cxx#4 $)

>  <Rbt.Library>
libRbt.so (2013.1, Build901 2013/11/27)

>  <Rbt.Parameter_File>
/export/apps/rDock/src/rDock_2013.1_src/data/scripts/dock_solv.prm

>  <Rbt.Receptor>
prm/pocket_docking_3.prm

>  <SCORE>
-8.7352

>  <SCORE.INTER>
-9.32206

>  <SCORE.INTER.CONST>
1

>  <SCORE.INTER.POLAR>
-0.751129

>  <SCORE.INTER.ROT>
3

>  <SCORE.INTER.SOLV>
19.0281

>  <SCORE.INTER.VDW>
-15.6536

>  <SCORE.INTER.norm>
-0.42373

>  <SCORE.INTRA>
0.586857

>  <SCORE.INTRA.DIHEDRAL>
-0.606178

>  <SCORE.INTRA.DIHEDRAL.0>
4.88619

>  <SCORE.INTRA.POLAR>
0

>  <SCORE.INTRA.POLAR.0>
0

>  <SCORE.INTRA.REPUL>
0

>  <SCORE.INTRA.REPUL.0>
0

>  <SCORE.INTRA.SOLV>
0.95709

>  <SCORE.INTRA.SOLV.lig_0>
-73.8187

>  <SCORE.INTRA.VDW>
0.411401

>  <SCORE.INTRA.VDW.0>
-1.32335

>  <SCORE.INTRA.norm>
0.0266753

>  <SCORE.RESTR>
0

>  <SCORE.RESTR.CAVITY>
0

>  <SCORE.RESTR.norm>
0

>  <SCORE.SYSTEM>
0

>  <SCORE.SYSTEM.CONST>
0

>  <SCORE.SYSTEM.DIHEDRAL>
0

>  <SCORE.SYSTEM.SOLV>
0

>  <SCORE.SYSTEM.norm>
0

>  <SCORE.heavy>
22

>  <SCORE.norm>
-0.397055

>  <RMSD>
3.597

$$$$
2fcx_lig
 OpenBabel11021811433D
libRbt.so/2013.1/901 2013/11/27
 22 23  0  0  0  0  0  0  0  0999 V2000
   28.8452   11.1706    9.7561 N   0  0  0  0  0  0  0  0  0  0  0  0
   27.7543    7.8428   13.1927 N   0  0  0  0  0  0  0  0  0  0  0  0
   24.2872    9.4322   15.1669 N   0  0  0  0  0  0  0  0  0  0  0  0
   28.9333   12.3844   14.4824 O   0  0  0  0  0  0  0  0  0  0  0  0
   29.2109   11.3385   13.5473 C   0  0  2  0  0  0  0  0  0  0  0  0
   30.2895    9.7374   17.6279 N   0  0  0  0  0  0  0  0  0  0  0  0
   29.8328   12.9061   11.8403 O   0  0  0  0  0  0  0  0  0  0  0  0
   28.9362   11.8251   12.1225 C   0  0  1  0  0  0  0  0  0  0  0  0
   28.8119    9.5690   15.1725 O   0  0  0  0  0  0  0  0  0  0  0  0
   29.1601   10.6976   11.1121 C   0  0  1  0  0  0  0  0  0  0  0  0
   26.8439   10.2012   16.2766 O   0  0  0  0  0  0  0  0  0  0  0  0
   28.2719    9.4935   11.4432 C   0  0  0  0  0  0  0  0  0  0  0  0
   26.3832    6.8657   17.8075 O   0  0  0  0  0  0  0  0  0  0  0  0
   28.5988    8.9971   12.8544 C   0  0  1  0  0  0  0  0  0  0  0  0
   28.7982    7.7191   19.0196 O   0  0  0  0  0  0  0  0  0  0  0  0
   28.3888   10.0936   13.9029 C   0  0  2  0  0  0  0  0  0  0  0  0
   28.2806   10.2898   16.2976 C   0  0  1  0  0  0  0  0  0  0  0  0
   26.3361    8.8590   16.4164 C   0  0  2  0  0  0  0  0  0  0  0  0
   24.8058    8.8633   16.4198 C   0  0  0  0  0  0  0  0  0  0  0  0
   26.8193    8.2260   17.7242 C   0  0  2  0  0  0  0  0  0  0  0  0
   28.3479    8.2521   17.7728 C   0  0  1  0  0  0  0  0  0  0  0  0
   28.8211    9.6985   17.6053 C   0  0  1  0  0  0  0  0  0  0  0  0
  5  4  1  1  0  0  0
  5  8  1  0  0  0  0
  5 16  1  0  0  0  0
  8  7  1  6  0  0  0
  8 10  1  0  0  0  0
 10  1  1  6  0  0  0
 10 12  1  0  0  0  0
 11 18  1  0  0  0  0
 12 14  1  0  0  0  0
 14  2  1  1  0  0  0
 14 16  1  0  0  0  0
 16  9  1  1  0  0  0
 17  9  1  6  0  0  0
 17 11  1  0  0  0  0
 17 22  1  0  0  0  0
 18 19  1  1  0  0  0
 18 20  1  0  0  0  0
 19  3  1  0  0  0  0
 20 13  1  6  0  0  0
 20 21  1  0  0  0  0
 21 15  1  1  0  0  0
 21 22  1  0  0  0  0
 22  6  1  6  0  0  0
M  END
>  <CHROM.1>
78.98758802,61.41294513,59.75810670,28.03505940,9.75311713,14.92135580,1.27149176
-0.52972017,-1.27611880

>  <Name>
2fcx_lig

>  <RI>
1.21945e+07

>  <Rbt.Current_Directory>
/home/itssahil/PROJECTS/Mol_Feturizer/New_Systems/rnas/2fcx

>  <Rbt.Executable>
rbdock ($Id: //depot/dev/client3/rdock/2013.1/src/exe/rbdock.cxx#4 $)

>  <Rbt.Library>
libRbt.so (2013.1, Build901 2013/11/27)

>  <Rbt.Parameter_File>
/export/apps/rDock/src/rDock_2013.1_src/data/scripts/dock_solv.prm

>  <Rbt.Receptor>
prm/pocket_docking_3.prm

>  <SCORE>
-10.929

>  <SCORE.INTER>
-9.03398

>  <SCORE.INTER.CONST>
1

>  <SCORE.INTER.POLAR>
-0.825842

>  <SCORE.INTER.ROT>
3

>  <SCORE.INTER.SOLV>
17.4969

>  <SCORE.INTER.VDW>
-14.7021

>  <SCORE.INTER.norm>
-0.410636

>  <SCORE.INTRA>
-1.89504

>  <SCORE.INTRA.DIHEDRAL>
-3.23014

>  <SCORE.INTRA.DIHEDRAL.0>
4.88619

>  <SCORE.INTRA.POLAR>
0

>  <SCORE.INTRA.POLAR.0>
0

>  <SCORE.INTRA.REPUL>
0

>  <SCORE.INTRA.REPUL.0>
0

>  <SCORE.INTRA.SOLV>
-0.199215

>  <SCORE.INTRA.SOLV.lig_0>
-73.8187

>  <SCORE.INTRA.VDW>
-0.180367

>  <SCORE.INTRA.VDW.0>
-1.32335

>  <SCORE.INTRA.norm>
-0.0861383

>  <SCORE.RESTR>
0

>  <SCORE.RESTR.CAVITY>
0

>  <SCORE.RESTR.norm>
0

>  <SCORE.SYSTEM>
0

>  <SCORE.SYSTEM.CONST>
0

>  <SCORE.SYSTEM.DIHEDRAL>
0

>  <SCORE.SYSTEM.SOLV>
0

>  <SCORE.SYSTEM.norm>
0

>  <SCORE.heavy>
22

>  <SCORE.norm>
-0.496774

>  <RMSD>
3.620

$$$$
2fcx_lig
 OpenBabel11021811433D
libRbt.so/2013.1/901 2013/11/27
 22 23  0  0  0  0  0  0  0  0999 V2000
   31.3212   14.0983   12.8739 N   0  0  0  0  0  0  0  0  0  0  0  0
   29.1002   10.0449   14.5207 N   0  0  0  0  0  0  0  0  0  0  0  0
   25.9730    9.5297   16.2046 N   0  0  0  0  0  0  0  0  0  0  0  0
   28.9663   11.1459    9.7825 O   0  0  0  0  0  0  0  0  0  0  0  0
   28.9454   11.7015   11.1003 C   0  0  2  0  0  0  0  0  0  0  0  0
   27.7277    7.5521   10.2709 N   0  0  0  0  0  0  0  0  0  0  0  0
   29.9602   13.7436   10.3534 O   0  0  0  0  0  0  0  0  0  0  0  0
   30.1220   12.6635   11.2803 C   0  0  1  0  0  0  0  0  0  0  0  0
   27.7428    9.8072   12.0471 O   0  0  0  0  0  0  0  0  0  0  0  0
   30.1578   13.2150   12.7075 C   0  0  1  0  0  0  0  0  0  0  0  0
   27.2728    8.4134   13.8715 O   0  0  0  0  0  0  0  0  0  0  0  0
   30.2451   12.0720   13.7244 C   0  0  0  0  0  0  0  0  0  0  0  0
   23.7103    8.0512   12.9449 O   0  0  0  0  0  0  0  0  0  0  0  0
   29.0336   11.1509   13.5550 C   0  0  1  0  0  0  0  0  0  0  0  0
   24.9985    6.8058   10.7494 O   0  0  0  0  0  0  0  0  0  0  0  0
   28.9556   10.5731   12.1388 C   0  0  2  0  0  0  0  0  0  0  0  0
   27.8674    8.4702   12.5617 C   0  0  1  0  0  0  0  0  0  0  0  0
   25.8581    8.6915   13.8868 C   0  0  2  0  0  0  0  0  0  0  0  0
   25.3049    8.5739   15.3087 C   0  0  0  0  0  0  0  0  0  0  0  0
   25.0989    7.7087   12.9913 C   0  0  2  0  0  0  0  0  0  0  0  0
   25.6636    7.7672   11.5710 C   0  0  1  0  0  0  0  0  0  0  0  0
   27.1660    7.4778   11.6263 C   0  0  1  0  0  0  0  0  0  0  0  0
  5  4  1  6  0  0  0
  5  8  1  0  0  0  0
  5 16  1  0  0  0  0
  8  7  1  6  0  0  0
  8 10  1  0  0  0  0
 10  1  1  6  0  0  0
 10 12  1  0  0  0  0
 11 18  1  0  0  0  0
 12 14  1  0  0  0  0
 14  2  1  1  0  0  0
 14 16  1  0  0  0  0
 16  9  1  1  0  0  0
 17  9  1  6  0  0  0
 17 11  1  0  0  0  0
 17 22  1  0  0  0  0
 18 19  1  1  0  0  0
 18 20  1  0  0  0  0
 19  3  1  0  0  0  0
 20 13  1  6  0  0  0
 20 21  1  0  0  0  0
 21 15  1  6  0  0  0
 21 22  1  0  0  0  0
 22  6  1  6  0  0  0
M  END
>  <CHROM.1>
156.54194914,102.06394000,60.10476443,27.75213447,9.95530596,12.51990664
0.02082144,0.82231692,1.35308878

>  <Name>
2fcx_lig

>  <RI>
0

>  <Rbt.Current_Directory>
/home/itssahil/PROJECTS/Mol_Feturizer/New_Systems/rnas/2fcx

>  <Rbt.Executable>
rbdock ($Id: //depot/dev/client3/rdock/2013.1/src/exe/rbdock.cxx#4 $)

>  <Rbt.Library>
libRbt.so (2013.1, Build901 2013/11/27)

>  <Rbt.Parameter_File>
/export/apps/rDock/src/rDock_2013.1_src/data/scripts/dock_solv.prm

>  <Rbt.Receptor>
prm/pocket_docking_6.prm

>  <SCORE>
-9.717

>  <SCORE.INTER>
-12.9613

>  <SCORE.INTER.CONST>
1

>  <SCORE.INTER.POLAR>
-1.7981

>  <SCORE.INTER.ROT>
3

>  <SCORE.INTER.SOLV>
11.0281

>  <SCORE.INTER.VDW>
-11.9233

>  <SCORE.INTER.norm>
-0.58915

>  <SCORE.INTRA>
3.2443

>  <SCORE.INTRA.DIHEDRAL>
3.2365

>  <SCORE.INTRA.DIHEDRAL.0>
4.88619

>  <SCORE.INTRA.POLAR>
0

>  <SCORE.INTRA.POLAR.0>
0

>  <SCORE.INTRA.REPUL>
0

>  <SCORE.INTRA.REPUL.0>
0

>  <SCORE.INTRA.SOLV>
2.87743

>  <SCORE.INTRA.SOLV.lig_0>
-73.8187

>  <SCORE.INTRA.VDW>
0.187339

>  <SCORE.INTRA.VDW.0>
-1.32335

>  <SCORE.INTRA.norm>
0.147468

>  <SCORE.RESTR>
0

>  <SCORE.RESTR.CAVITY>
0

>  <SCORE.RESTR.norm>
0

>  <SCORE.SYSTEM>
0

>  <SCORE.SYSTEM.CONST>
0

>  <SCORE.SYSTEM.DIHEDRAL>
0

>  <SCORE.SYSTEM.SOLV>
0

>  <SCORE.SYSTEM.norm>
0

>  <SCORE.heavy>
22

>  <SCORE.norm>
-0.441682

>  <RMSD>
3.678

$$$$
2fcx_lig
 OpenBabel11021811433D
libRbt.so/2013.1/901 2013/11/27
 22 23  0  0  0  0  0  0  0  0999 V2000
   28.4354   13.6426   10.3135 N   0  0  0  0  0  0  0  0  0  0  0  0
   27.4034    9.4082   12.5672 N   0  0  0  0  0  0  0  0  0  0  0  0
   24.3088    9.4530   15.3200 N   0  0  0  0  0  0  0  0  0  0  0  0
   28.9766   13.2234   15.1457 O   0  0  0  0  0  0  0  0  0  0  0  0
   29.1101   12.5357   13.8988 C   0  0  2  0  0  0  0  0  0  0  0  0
   30.5111   10.0906   17.1229 N   0  0  0  0  0  0  0  0  0  0  0  0
   29.6967   14.5556   12.7439 O   0  0  0  0  0  0  0  0  0  0  0  0
   28.7562   13.4751   12.7436 C   0  0  1  0  0  0  0  0  0  0  0  0
   28.7254   10.3444   14.8896 O   0  0  0  0  0  0  0  0  0  0  0  0
   28.8248   12.7373   11.4045 C   0  0  1  0  0  0  0  0  0  0  0  0
   26.8736   10.3046   16.3252 O   0  0  0  0  0  0  0  0  0  0  0  0
   27.8884   11.5242   11.4094 C   0  0  0  0  0  0  0  0  0  0  0  0
   27.0999    6.6510   16.8559 O   0  0  0  0  0  0  0  0  0  0  0  0
   28.2925   10.5782   12.5436 C   0  0  1  0  0  0  0  0  0  0  0  0
   29.5284    7.5449   18.0107 O   0  0  0  0  0  0  0  0  0  0  0  0
   28.2386   11.2738   13.9071 C   0  0  2  0  0  0  0  0  0  0  0  0
   28.2724   10.6297   16.2242 C   0  0  1  0  0  0  0  0  0  0  0  0
   26.5788    8.9084   16.1189 C   0  0  2  0  0  0  0  0  0  0  0  0
   25.0794    8.6483   16.2798 C   0  0  0  0  0  0  0  0  0  0  0  0
   27.3304    8.0367   17.1286 C   0  0  2  0  0  0  0  0  0  0  0  0
   28.8316    8.3110   17.0262 C   0  0  1  0  0  0  0  0  0  0  0  0
   29.0743    9.8074   17.2403 C   0  0  1  0  0  0  0  0  0  0  0  0
  5  4  1  1  0  0  0
  5  8  1  0  0  0  0
  5 16  1  0  0  0  0
  8  7  1  6  0  0  0
  8 10  1  0  0  0  0
 10  1  1  6  0  0  0
 10 12  1  0  0  0  0
 11 18  1  0  0  0  0
 12 14  1  0  0  0  0
 14  2  1  1  0  0  0
 14 16  1  0  0  0  0
 16  9  1  1  0  0  0
 17  9  1  6  0  0  0
 17 11  1  0  0  0  0
 17 22  1  0  0  0  0
 18 19  1  1  0  0  0
 18 20  1  0  0  0  0
 19  3  1  0  0  0  0
 20 13  1  6  0  0  0
 20 21  1  0  0  0  0
 21 15  1  1  0  0  0
 21 22  1  0  0  0  0
 22  6  1  6  0  0  0
M  END
>  <CHROM.1>
82.23373393,72.16255595,58.94094434,28.09083085,10.52429294,14.81516407,1.36713590
-0.56674897,-0.90250245

>  <Name>
2fcx_lig

>  <RI>
1.55453e+07

>  <Rbt.Current_Directory>
/home/itssahil/PROJECTS/Mol_Feturizer/New_Systems/rnas/2fcx

>  <Rbt.Executable>
rbdock ($Id: //depot/dev/client3/rdock/2013.1/src/exe/rbdock.cxx#4 $)

>  <Rbt.Library>
libRbt.so (2013.1, Build901 2013/11/27)

>  <Rbt.Parameter_File>
/export/apps/rDock/src/rDock_2013.1_src/data/scripts/dock_solv.prm

>  <Rbt.Receptor>
prm/pocket_docking_4.prm

>  <SCORE>
-9.47453

>  <SCORE.INTER>
-8.26453

>  <SCORE.INTER.CONST>
1

>  <SCORE.INTER.POLAR>
-0.882346

>  <SCORE.INTER.ROT>
3

>  <SCORE.INTER.SOLV>
12.1797

>  <SCORE.INTER.VDW>
-12.2284

>  <SCORE.INTER.norm>
-0.37566

>  <SCORE.INTRA>
-1.21

>  <SCORE.INTRA.DIHEDRAL>
-1.99164

>  <SCORE.INTRA.DIHEDRAL.0>
4.88619

>  <SCORE.INTRA.POLAR>
0

>  <SCORE.INTRA.POLAR.0>
0

>  <SCORE.INTRA.REPUL>
0

>  <SCORE.INTRA.REPUL.0>
0

>  <SCORE.INTRA.SOLV>
0.269769

>  <SCORE.INTRA.SOLV.lig_0>
-73.8187

>  <SCORE.INTRA.VDW>
-0.349063

>  <SCORE.INTRA.VDW.0>
-1.32335

>  <SCORE.INTRA.norm>
-0.0549999

>  <SCORE.RESTR>
0

>  <SCORE.RESTR.CAVITY>
0

>  <SCORE.RESTR.norm>
0

>  <SCORE.SYSTEM>
0

>  <SCORE.SYSTEM.CONST>
0

>  <SCORE.SYSTEM.DIHEDRAL>
0

>  <SCORE.SYSTEM.SOLV>
0

>  <SCORE.SYSTEM.norm>
0

>  <SCORE.heavy>
22

>  <SCORE.norm>
-0.43066

>  <RMSD>
3.680

$$$$
2fcx_lig
 OpenBabel11021811433D
libRbt.so/2013.1/901 2013/11/27
 22 23  0  0  0  0  0  0  0  0999 V2000
   32.5660   14.9413   12.7152 N   0  0  0  0  0  0  0  0  0  0  0  0
   28.5900   13.2922   10.3601 N   0  0  0  0  0  0  0  0  0  0  0  0
   29.8122    9.7578   16.2877 N   0  0  0  0  0  0  0  0  0  0  0  0
   29.1552   12.4022   15.1107 O   0  0  0  0  0  0  0  0  0  0  0  0
   29.8494   12.5268   13.8665 C   0  0  2  0  0  0  0  0  0  0  0  0
   27.1199   10.0332   10.3418 N   0  0  0  0  0  0  0  0  0  0  0  0
   31.8553   13.2666   14.9561 O   0  0  0  0  0  0  0  0  0  0  0  0
   30.8951   13.6404   13.9610 C   0  0  1  0  0  0  0  0  0  0  0  0
   28.0007   11.6188   12.5669 O   0  0  0  0  0  0  0  0  0  0  0  0
   31.6007   13.8367   12.6172 C   0  0  1  0  0  0  0  0  0  0  0  0
   29.3050    9.8401   13.3586 O   0  0  0  0  0  0  0  0  0  0  0  0
   30.5834   14.1546   11.5161 C   0  0  0  0  0  0  0  0  0  0  0  0
   26.3781    8.0115   14.6893 O   0  0  0  0  0  0  0  0  0  0  0  0
   29.5774   13.0049   11.4101 C   0  0  1  0  0  0  0  0  0  0  0  0
   25.8416    7.9958   11.9069 O   0  0  0  0  0  0  0  0  0  0  0  0
   28.8443   12.7705   12.7342 C   0  0  2  0  0  0  0  0  0  0  0  0
   28.7177   10.4322   12.1852 C   0  0  1  0  0  0  0  0  0  0  0  0
   28.3432    9.3991   14.3381 C   0  0  2  0  0  0  0  0  0  0  0  0
   29.0515    8.7526   15.5306 C   0  0  0  0  0  0  0  0  0  0  0  0
   27.3808    8.3726   13.7345 C   0  0  2  0  0  0  0  0  0  0  0  0
   26.6926    8.9737   12.5079 C   0  0  1  0  0  0  0  0  0  0  0  0
   27.7655    9.4329   11.5170 C   0  0  1  0  0  0  0  0  0  0  0  0
  5  4  1  1  0  0  0
  5  8  1  0  0  0  0
  5 16  1  0  0  0  0
  8  7  1  1  0  0  0
  8 10  1  0  0  0  0
 10  1  1  1  0  0  0
 10 12  1  0  0  0  0
 11 18  1  0  0  0  0
 12 14  1  0  0  0  0
 14  2  1  6  0  0  0
 14 16  1  0  0  0  0
 16  9  1  6  0  0  0
 17  9  1  1  0  0  0
 17 11  1  0  0  0  0
 17 22  1  0  0  0  0
 18 19  1  1  0  0  0
 18 20  1  0  0  0  0
 19  3  1  0  0  0  0
 20 13  1  1  0  0  0
 20 21  1  0  0  0  0
 21 15  1  6  0  0  0
 21 22  1  0  0  0  0
 22  6  1  6  0  0  0
M  END
>  <CHROM.1>
-62.38844368,81.02593398,68.07437017,28.97555672,11.17522863,13.13296444
0.48306869,-0.81696963,-0.99262328

>  <Name>
2fcx_lig

>  <RI>
1.21945e+07

>  <Rbt.Current_Directory>
/home/itssahil/PROJECTS/Mol_Feturizer/New_Systems/rnas/2fcx

>  <Rbt.Executable>
rbdock ($Id: //depot/dev/client3/rdock/2013.1/src/exe/rbdock.cxx#4 $)

>  <Rbt.Library>
libRbt.so (2013.1, Build901 2013/11/27)

>  <Rbt.Parameter_File>
/export/apps/rDock/src/rDock_2013.1_src/data/scripts/dock_solv.prm

>  <Rbt.Receptor>
prm/pocket_docking_3.prm

>  <SCORE>
-4.89069

>  <SCORE.INTER>
-5.54123

>  <SCORE.INTER.CONST>
1

>  <SCORE.INTER.POLAR>
-0.736255

>  <SCORE.INTER.ROT>
3

>  <SCORE.INTER.SOLV>
8.21715

>  <SCORE.INTER.VDW>
-9.57902

>  <SCORE.INTER.norm>
-0.251874

>  <SCORE.INTRA>
0.650541

>  <SCORE.INTRA.DIHEDRAL>
-2.65255

>  <SCORE.INTRA.DIHEDRAL.0>
4.88619

>  <SCORE.INTRA.POLAR>
0

>  <SCORE.INTRA.POLAR.0>
0

>  <SCORE.INTRA.REPUL>
0

>  <SCORE.INTRA.REPUL.0>
0

>  <SCORE.INTRA.SOLV>
2.68919

>  <SCORE.INTRA.SOLV.lig_0>
-73.8187

>  <SCORE.INTRA.VDW>
0.632221

>  <SCORE.INTRA.VDW.0>
-1.32335

>  <SCORE.INTRA.norm>
0.0295701

>  <SCORE.RESTR>
0

>  <SCORE.RESTR.CAVITY>
0

>  <SCORE.RESTR.norm>
0

>  <SCORE.SYSTEM>
0

>  <SCORE.SYSTEM.CONST>
0

>  <SCORE.SYSTEM.DIHEDRAL>
0

>  <SCORE.SYSTEM.SOLV>
0

>  <SCORE.SYSTEM.norm>
0

>  <SCORE.heavy>
22

>  <SCORE.norm>
-0.222304

>  <RMSD>
3.750

$$$$
2fcx_lig
 OpenBabel11021811433D
libRbt.so/2013.1/901 2013/11/27
 22 23  0  0  0  0  0  0  0  0999 V2000
   30.2558   16.5596   18.3402 N   0  0  0  0  0  0  0  0  0  0  0  0
   29.0772   12.0999   20.0126 N   0  0  0  0  0  0  0  0  0  0  0  0
   31.5244    8.2529   19.2313 N   0  0  0  0  0  0  0  0  0  0  0  0
   30.0090   12.7635   15.2828 O   0  0  0  0  0  0  0  0  0  0  0  0
   29.4198   13.3614   16.4407 C   0  0  2  0  0  0  0  0  0  0  0  0
   27.0982   10.5770   15.0364 N   0  0  0  0  0  0  0  0  0  0  0  0
   29.8954   15.5767   15.6504 O   0  0  0  0  0  0  0  0  0  0  0  0
   30.1138   14.6892   16.7535 C   0  0  1  0  0  0  0  0  0  0  0  0
   28.6683   11.2303   17.3490 O   0  0  0  0  0  0  0  0  0  0  0  0
   29.5442   15.3107   18.0308 C   0  0  1  0  0  0  0  0  0  0  0  0
   30.1101    9.4342   16.9167 O   0  0  0  0  0  0  0  0  0  0  0  0
   29.6892   14.3441   19.2110 C   0  0  0  0  0  0  0  0  0  0  0  0
   27.7002    6.9253   18.1734 O   0  0  0  0  0  0  0  0  0  0  0  0
   28.9475   13.0428   18.8927 C   0  0  1  0  0  0  0  0  0  0  0  0
   26.3220    7.9611   15.9244 O   0  0  0  0  0  0  0  0  0  0  0  0
   29.4843   12.3824   17.6193 C   0  0  2  0  0  0  0  0  0  0  0  0
   29.2008   10.3778   16.3207 C   0  0  1  0  0  0  0  0  0  0  0  0
   29.4913    8.5397   17.8632 C   0  0  2  0  0  0  0  0  0  0  0  0
   30.5201    7.5518   18.4176 C   0  0  0  0  0  0  0  0  0  0  0  0
   28.3635    7.7416   17.2033 C   0  0  2  0  0  0  0  0  0  0  0  0
   27.3420    8.7039   16.5948 C   0  0  1  0  0  0  0  0  0  0  0  0
   28.0632    9.6314   15.6133 C   0  0  1  0  0  0  0  0  0  0  0  0
  5  4  1  6  0  0  0
  5  8  1  0  0  0  0
  5 16  1  0  0  0  0
  8  7  1  6  0  0  0
  8 10  1  0  0  0  0
 10  1  1  1  0  0  0
 10 12  1  0  0  0  0
 11 18  1  0  0  0  0
 12 14  1  0  0  0  0
 14  2  1  1  0  0  0
 14 16  1  0  0  0  0
 16  9  1  6  0  0  0
 17  9  1  1  0  0  0
 17 11  1  0  0  0  0
 17 22  1  0  0  0  0
 18 19  1  6  0  0  0
 18 20  1  0  0  0  0
 19  3  1  0  0  0  0
 20 13  1  1  0  0  0
 20 21  1  0  0  0  0
 21 15  1  6  0  0  0
 21 22  1  0  0  0  0
 22  6  1  1  0  0  0
M  END
>  <CHROM.1>
70.13325894,87.25713711,66.56299783,29.12014339,11.20271184,17.28914278,-1.21515981
0.98890695,2.86978277

>  <Name>
2fcx_lig

>  <RI>
1.15031e+07

>  <Rbt.Current_Directory>
/home/itssahil/PROJECTS/Mol_Feturizer/New_Systems/rnas/2fcx

>  <Rbt.Executable>
rbdock ($Id: //depot/dev/client3/rdock/2013.1/src/exe/rbdock.cxx#4 $)

>  <Rbt.Library>
libRbt.so (2013.1, Build901 2013/11/27)

>  <Rbt.Parameter_File>
/export/apps/rDock/src/rDock_2013.1_src/data/scripts/dock_solv.prm

>  <Rbt.Receptor>
prm/pocket_docking_8.prm

>  <SCORE>
-12.1085

>  <SCORE.INTER>
-11.7336

>  <SCORE.INTER.CONST>
1

>  <SCORE.INTER.POLAR>
-0.474417

>  <SCORE.INTER.ROT>
3

>  <SCORE.INTER.SOLV>
15.0673

>  <SCORE.INTER.VDW>
-16.8634

>  <SCORE.INTER.norm>
-0.533345

>  <SCORE.INTRA>
-0.37495

>  <SCORE.INTRA.DIHEDRAL>
-1.1486

>  <SCORE.INTRA.DIHEDRAL.0>
4.88619

>  <SCORE.INTRA.POLAR>
0

>  <SCORE.INTRA.POLAR.0>
0

>  <SCORE.INTRA.REPUL>
0

>  <SCORE.INTRA.REPUL.0>
0

>  <SCORE.INTRA.SOLV>
-0.270561

>  <SCORE.INTRA.SOLV.lig_0>
-73.8187

>  <SCORE.INTRA.VDW>
0.334631

>  <SCORE.INTRA.VDW.0>
-1.32335

>  <SCORE.INTRA.norm>
-0.0170432

>  <SCORE.RESTR>
0

>  <SCORE.RESTR.CAVITY>
0

>  <SCORE.RESTR.norm>
0

>  <SCORE.SYSTEM>
0

>  <SCORE.SYSTEM.CONST>
0

>  <SCORE.SYSTEM.DIHEDRAL>
0

>  <SCORE.SYSTEM.SOLV>
0

>  <SCORE.SYSTEM.norm>
0

>  <SCORE.heavy>
22

>  <SCORE.norm>
-0.550388

>  <RMSD>
3.780

$$$$
2fcx_lig
 OpenBabel11021811433D
libRbt.so/2013.1/901 2013/11/27
 22 23  0  0  0  0  0  0  0  0999 V2000
   29.5766   15.6394   13.7723 N   0  0  0  0  0  0  0  0  0  0  0  0
   29.3922   10.7446   13.4870 N   0  0  0  0  0  0  0  0  0  0  0  0
   25.3978    8.0945   16.1396 N   0  0  0  0  0  0  0  0  0  0  0  0
   29.0727   12.9495   17.8132 O   0  0  0  0  0  0  0  0  0  0  0  0
   29.6982   13.0081   16.5284 C   0  0  2  0  0  0  0  0  0  0  0  0
   30.8393    9.0624   18.4781 N   0  0  0  0  0  0  0  0  0  0  0  0
   29.8919   15.3977   16.6312 O   0  0  0  0  0  0  0  0  0  0  0  0
   29.3547   14.3311   15.8400 C   0  0  1  0  0  0  0  0  0  0  0  0
   29.7818   10.5861   16.2871 O   0  0  0  0  0  0  0  0  0  0  0  0
   29.9575   14.3831   14.4342 C   0  0  1  0  0  0  0  0  0  0  0  0
   27.6443    9.7018   16.6626 O   0  0  0  0  0  0  0  0  0  0  0  0
   29.4634   13.2017   13.5924 C   0  0  0  0  0  0  0  0  0  0  0  0
   28.4955    6.4429   15.1340 O   0  0  0  0  0  0  0  0  0  0  0  0
   29.8602   11.8914   14.2782 C   0  0  1  0  0  0  0  0  0  0  0  0
   30.2188    6.4836   17.3832 O   0  0  0  0  0  0  0  0  0  0  0  0
   29.2783   11.7935   15.6915 C   0  0  2  0  0  0  0  0  0  0  0  0
   28.9043   10.0257   17.2790 C   0  0  1  0  0  0  0  0  0  0  0  0
   27.7356    8.6981   15.6316 C   0  0  2  0  0  0  0  0  0  0  0  0
   26.3501    8.3911   15.0590 C   0  0  0  0  0  0  0  0  0  0  0  0
   28.3270    7.3989   16.1854 C   0  0  2  0  0  0  0  0  0  0  0  0
   29.6939    7.6827   16.8104 C   0  0  1  0  0  0  0  0  0  0  0  0
   29.5300    8.7626   17.8831 C   0  0  1  0  0  0  0  0  0  0  0  0
  5  4  1  1  0  0  0
  5  8  1  0  0  0  0
  5 16  1  0  0  0  0
  8  7  1  1  0  0  0
  8 10  1  0  0  0  0
 10  1  1  6  0  0  0
 10 12  1  0  0  0  0
 11 18  1  0  0  0  0
 12 14  1  0  0  0  0
 14  2  1  6  0  0  0
 14 16  1  0  0  0  0
 16  9  1  1  0  0  0
 17  9  1  6  0  0  0
 17 11  1  0  0  0  0
 17 22  1  0  0  0  0
 18 19  1  1  0  0  0
 18 20  1  0  0  0  0
 19  3  1  0  0  0  0
 20 13  1  6  0  0  0
 20 21  1  0  0  0  0
 21 15  1  1  0  0  0
 21 22  1  0  0  0  0
 22  6  1  6  0  0  0
M  END
>  <CHROM.1>
87.48737321,60.59748742,-51.23249764,29.02046041,10.64702488,15.97804281
1.26973606,-0.94415350,-0.43192328

>  <Name>
2fcx_lig

>  <RI>
3.23342e+07

>  <Rbt.Current_Directory>
/home/itssahil/PROJECTS/Mol_Feturizer/New_Systems/rnas/2fcx

>  <Rbt.Executable>
rbdock ($Id: //depot/dev/client3/rdock/2013.1/src/exe/rbdock.cxx#4 $)

>  <Rbt.Library>
libRbt.so (2013.1, Build901 2013/11/27)

>  <Rbt.Parameter_File>
/export/apps/rDock/src/rDock_2013.1_src/data/scripts/dock_solv.prm

>  <Rbt.Receptor>
prm/pocket_docking_5.prm

>  <SCORE>
-10.9447

>  <SCORE.INTER>
-10.573

>  <SCORE.INTER.CONST>
1

>  <SCORE.INTER.POLAR>
-0.804974

>  <SCORE.INTER.ROT>
3

>  <SCORE.INTER.SOLV>
14.8708

>  <SCORE.INTER.VDW>
-14.9224

>  <SCORE.INTER.norm>
-0.480593

>  <SCORE.INTRA>
-0.375923

>  <SCORE.INTRA.DIHEDRAL>
-1.48036

>  <SCORE.INTRA.DIHEDRAL.0>
4.88619

>  <SCORE.INTRA.POLAR>
0

>  <SCORE.INTRA.POLAR.0>
0

>  <SCORE.INTRA.REPUL>
0

>  <SCORE.INTRA.REPUL.0>
0

>  <SCORE.INTRA.SOLV>
1.47591

>  <SCORE.INTRA.SOLV.lig_0>
-73.8187

>  <SCORE.INTRA.VDW>
-0.373702

>  <SCORE.INTRA.VDW.0>
-1.32335

>  <SCORE.INTRA.norm>
-0.0170874

>  <SCORE.RESTR>
0.0043054

>  <SCORE.RESTR.CAVITY>
0.0043054

>  <SCORE.RESTR.norm>
0.0001957

>  <SCORE.SYSTEM>
0

>  <SCORE.SYSTEM.CONST>
0

>  <SCORE.SYSTEM.DIHEDRAL>
0

>  <SCORE.SYSTEM.SOLV>
0

>  <SCORE.SYSTEM.norm>
0

>  <SCORE.heavy>
22

>  <SCORE.norm>
-0.497485

>  <RMSD>
4.027

$$$$
2fcx_lig
 OpenBabel11021811433D
libRbt.so/2013.1/901 2013/11/27
 22 23  0  0  0  0  0  0  0  0999 V2000
   29.5173   15.7611   17.5662 N   0  0  0  0  0  0  0  0  0  0  0  0
   29.4996   11.6130   20.1869 N   0  0  0  0  0  0  0  0  0  0  0  0
   28.0483   10.5270   13.4341 N   0  0  0  0  0  0  0  0  0  0  0  0
   30.0300   11.4418   15.3527 O   0  0  0  0  0  0  0  0  0  0  0  0
   29.3706   12.1277   16.4205 C   0  0  2  0  0  0  0  0  0  0  0  0
   27.5588    8.6153   19.6168 N   0  0  0  0  0  0  0  0  0  0  0  0
   29.2747   14.1726   15.1685 O   0  0  0  0  0  0  0  0  0  0  0  0
   29.7464   13.6112   16.3991 C   0  0  1  0  0  0  0  0  0  0  0  0
   29.1844   10.1273   17.7971 O   0  0  0  0  0  0  0  0  0  0  0  0
   29.1061   14.3495   17.5769 C   0  0  1  0  0  0  0  0  0  0  0  0
   27.4425   10.1743   16.2302 O   0  0  0  0  0  0  0  0  0  0  0  0
   29.5287   13.7131   18.9053 C   0  0  0  0  0  0  0  0  0  0  0  0
   27.9983    6.6669   15.1954 O   0  0  0  0  0  0  0  0  0  0  0  0
   29.1002   12.2431   18.9205 C   0  0  1  0  0  0  0  0  0  0  0  0
   27.2092    6.3443   17.8979 O   0  0  0  0  0  0  0  0  0  0  0  0
   29.7180   11.4614   17.7574 C   0  0  2  0  0  0  0  0  0  0  0  0
   27.7570   10.0745   17.6314 C   0  0  1  0  0  0  0  0  0  0  0  0
   27.9535    9.0858   15.4346 C   0  0  2  0  0  0  0  0  0  0  0  0
   27.5428    9.2543   13.9701 C   0  0  0  0  0  0  0  0  0  0  0  0
   27.4138    7.7433   15.9352 C   0  0  2  0  0  0  0  0  0  0  0  0
   27.7663    7.5675   17.4132 C   0  0  1  0  0  0  0  0  0  0  0  0
   27.2090    8.7586   18.1972 C   0  0  1  0  0  0  0  0  0  0  0  0
  5  4  1  6  0  0  0
  5  8  1  0  0  0  0
  5 16  1  0  0  0  0
  8  7  1  6  0  0  0
  8 10  1  0  0  0  0
 10  1  1  1  0  0  0
 10 12  1  0  0  0  0
 11 18  1  0  0  0  0
 12 14  1  0  0  0  0
 14  2  1  1  0  0  0
 14 16  1  0  0  0  0
 16  9  1  6  0  0  0
 17  9  1  6  0  0  0
 17 11  1  0  0  0  0
 17 22  1  0  0  0  0
 18 19  1  6  0  0  0
 18 20  1  0  0  0  0
 19  3  1  0  0  0  0
 20 13  1  6  0  0  0
 20 21  1  0  0  0  0
 21 15  1  1  0  0  0
 21 22  1  0  0  0  0
 22  6  1  1  0  0  0
M  END
>  <CHROM.1>
-58.77371774,80.66871786,58.86067205,28.54448263,10.66768860,16.92174709
-0.00713863,-1.27096888,-1.44982782

>  <Name>
2fcx_lig

>  <RI>
1.15031e+07

>  <Rbt.Current_Directory>
/home/itssahil/PROJECTS/Mol_Feturizer/New_Systems/rnas/2fcx

>  <Rbt.Executable>
rbdock ($Id: //depot/dev/client3/rdock/2013.1/src/exe/rbdock.cxx#4 $)

>  <Rbt.Library>
libRbt.so (2013.1, Build901 2013/11/27)

>  <Rbt.Parameter_File>
/export/apps/rDock/src/rDock_2013.1_src/data/scripts/dock_solv.prm

>  <Rbt.Receptor>
prm/pocket_docking_8.prm

>  <SCORE>
-13.7208

>  <SCORE.INTER>
-14.3154

>  <SCORE.INTER.CONST>
1

>  <SCORE.INTER.POLAR>
-0.916515

>  <SCORE.INTER.ROT>
3

>  <SCORE.INTER.SOLV>
14.2372

>  <SCORE.INTER.VDW>
-16.8343

>  <SCORE.INTER.norm>
-0.650698

>  <SCORE.INTRA>
0.5946

>  <SCORE.INTRA.DIHEDRAL>
-2.95523

>  <SCORE.INTRA.DIHEDRAL.0>
4.88619

>  <SCORE.INTRA.POLAR>
0

>  <SCORE.INTRA.POLAR.0>
0

>  <SCORE.INTRA.REPUL>
0

>  <SCORE.INTRA.REPUL.0>
0

>  <SCORE.INTRA.SOLV>
2.77103

>  <SCORE.INTRA.SOLV.lig_0>
-73.8187

>  <SCORE.INTRA.VDW>
0.686703

>  <SCORE.INTRA.VDW.0>
-1.32335

>  <SCORE.INTRA.norm>
0.0270273

>  <SCORE.RESTR>
0

>  <SCORE.RESTR.CAVITY>
0

>  <SCORE.RESTR.norm>
0

>  <SCORE.SYSTEM>
0

>  <SCORE.SYSTEM.CONST>
0

>  <SCORE.SYSTEM.DIHEDRAL>
0

>  <SCORE.SYSTEM.SOLV>
0

>  <SCORE.SYSTEM.norm>
0

>  <SCORE.heavy>
22

>  <SCORE.norm>
-0.623671

>  <RMSD>
4.083

$$$$
2fcx_lig
 OpenBabel11021811433D
libRbt.so/2013.1/901 2013/11/27
 22 23  0  0  0  0  0  0  0  0999 V2000
   30.0486   16.5164   18.2144 N   0  0  0  0  0  0  0  0  0  0  0  0
   29.5378   11.9940   20.0478 N   0  0  0  0  0  0  0  0  0  0  0  0
   28.1105    6.7071   19.9915 N   0  0  0  0  0  0  0  0  0  0  0  0
   29.7059   12.6688   15.2316 O   0  0  0  0  0  0  0  0  0  0  0  0
   29.2397   13.2283   16.4625 C   0  0  2  0  0  0  0  0  0  0  0  0
   30.2227    9.7959   15.3034 N   0  0  0  0  0  0  0  0  0  0  0  0
   29.3911   15.4654   15.6078 O   0  0  0  0  0  0  0  0  0  0  0  0
   29.8479   14.6176   16.6683 C   0  0  1  0  0  0  0  0  0  0  0  0
   28.8261   11.0519   17.4742 O   0  0  0  0  0  0  0  0  0  0  0  0
   29.4164   15.2042   18.0143 C   0  0  1  0  0  0  0  0  0  0  0  0
   29.0345    9.1121   18.7724 O   0  0  0  0  0  0  0  0  0  0  0  0
   29.8193   14.2721   19.1620 C   0  0  0  0  0  0  0  0  0  0  0  0
   26.3673    7.3369   16.9242 O   0  0  0  0  0  0  0  0  0  0  0  0
   29.1609   12.9048   18.9576 C   0  0  1  0  0  0  0  0  0  0  0  0
   28.3268    7.6788   14.9059 O   0  0  0  0  0  0  0  0  0  0  0  0
   29.5643   12.2766   17.6204 C   0  0  2  0  0  0  0  0  0  0  0  0
   29.6185    9.8733   17.6990 C   0  0  1  0  0  0  0  0  0  0  0  0
   27.7069    8.6244   18.4920 C   0  0  2  0  0  0  0  0  0  0  0  0
   27.1803    7.7991   19.6681 C   0  0  0  0  0  0  0  0  0  0  0  0
   27.7029    7.7398   17.2422 C   0  0  2  0  0  0  0  0  0  0  0  0
   28.2715    8.5227   16.0576 C   0  0  1  0  0  0  0  0  0  0  0  0
   29.6714    9.0225   16.4242 C   0  0  1  0  0  0  0  0  0  0  0  0
  5  4  1  6  0  0  0
  5  8  1  0  0  0  0
  5 16  1  0  0  0  0
  8  7  1  6  0  0  0
  8 10  1  0  0  0  0
 10  1  1  1  0  0  0
 10 12  1  0  0  0  0
 11 18  1  0  0  0  0
 12 14  1  0  0  0  0
 14  2  1  1  0  0  0
 14 16  1  0  0  0  0
 16  9  1  6  0  0  0
 17  9  1  6  0  0  0
 17 11  1  0  0  0  0
 17 22  1  0  0  0  0
 18 19  1  1  0  0  0
 18 20  1  0  0  0  0
 19  3  1  0  0  0  0
 20 13  1  6  0  0  0
 20 21  1  0  0  0  0
 21 15  1  6  0  0  0
 21 22  1  0  0  0  0
 22  6  1  6  0  0  0
M  END
>  <CHROM.1>
134.75925876,121.48668330,-55.46902941,28.92874926,10.99496808,17.46285891
0.32171064,1.30812191,1.20307011

>  <Name>
2fcx_lig

>  <RI>
1.15031e+07

>  <Rbt.Current_Directory>
/home/itssahil/PROJECTS/Mol_Feturizer/New_Systems/rnas/2fcx

>  <Rbt.Executable>
rbdock ($Id: //depot/dev/client3/rdock/2013.1/src/exe/rbdock.cxx#4 $)

>  <Rbt.Library>
libRbt.so (2013.1, Build901 2013/11/27)

>  <Rbt.Parameter_File>
/export/apps/rDock/src/rDock_2013.1_src/data/scripts/dock_solv.prm

>  <Rbt.Receptor>
prm/pocket_docking_8.prm

>  <SCORE>
-10.5598

>  <SCORE.INTER>
-15.6787

>  <SCORE.INTER.CONST>
1

>  <SCORE.INTER.POLAR>
-1.35689

>  <SCORE.INTER.ROT>
3

>  <SCORE.INTER.SOLV>
16.0726

>  <SCORE.INTER.VDW>
-16.887

>  <SCORE.INTER.norm>
-0.712666

>  <SCORE.INTRA>
5.11887

>  <SCORE.INTRA.DIHEDRAL>
8.55664

>  <SCORE.INTRA.DIHEDRAL.0>
4.88619

>  <SCORE.INTRA.POLAR>
0

>  <SCORE.INTRA.POLAR.0>
0

>  <SCORE.INTRA.REPUL>
0

>  <SCORE.INTRA.REPUL.0>
0

>  <SCORE.INTRA.SOLV>
3.04433

>  <SCORE.INTRA.SOLV.lig_0>
-73.8187

>  <SCORE.INTRA.VDW>
-0.681619

>  <SCORE.INTRA.VDW.0>
-1.32335

>  <SCORE.INTRA.norm>
0.232676

>  <SCORE.RESTR>
0

>  <SCORE.RESTR.CAVITY>
0

>  <SCORE.RESTR.norm>
0

>  <SCORE.SYSTEM>
0

>  <SCORE.SYSTEM.CONST>
0

>  <SCORE.SYSTEM.DIHEDRAL>
0

>  <SCORE.SYSTEM.SOLV>
0

>  <SCORE.SYSTEM.norm>
0

>  <SCORE.heavy>
22

>  <SCORE.norm>
-0.47999

>  <RMSD>
4.130

$$$$
2fcx_lig
 OpenBabel11021811433D
libRbt.so/2013.1/901 2013/11/27
 22 23  0  0  0  0  0  0  0  0999 V2000
   29.4770   15.7182   17.5781 N   0  0  0  0  0  0  0  0  0  0  0  0
   29.6318   11.6353   20.2949 N   0  0  0  0  0  0  0  0  0  0  0  0
   25.8419    9.5676   14.2587 N   0  0  0  0  0  0  0  0  0  0  0  0
   29.9952   11.3567   15.4503 O   0  0  0  0  0  0  0  0  0  0  0  0
   29.3606   12.0561   16.5244 C   0  0  2  0  0  0  0  0  0  0  0  0
   27.8318    8.4177   19.8004 N   0  0  0  0  0  0  0  0  0  0  0  0
   29.1811   14.0678   15.2287 O   0  0  0  0  0  0  0  0  0  0  0  0
   29.7065   13.5453   16.4547 C   0  0  1  0  0  0  0  0  0  0  0  0
   29.2618   10.0865   17.9536 O   0  0  0  0  0  0  0  0  0  0  0  0
   29.0939   14.2999   17.6368 C   0  0  1  0  0  0  0  0  0  0  0  0
   27.3877   10.1939   16.5506 O   0  0  0  0  0  0  0  0  0  0  0  0
   29.5752   13.7039   18.9640 C   0  0  0  0  0  0  0  0  0  0  0  0
   27.9162    6.7774   15.2352 O   0  0  0  0  0  0  0  0  0  0  0  0
   29.1761   12.2270   19.0291 C   0  0  1  0  0  0  0  0  0  0  0  0
   27.3749    6.2574   17.9678 O   0  0  0  0  0  0  0  0  0  0  0  0
   29.7676   11.4289   17.8634 C   0  0  2  0  0  0  0  0  0  0  0  0
   27.8265   10.0094   17.9092 C   0  0  1  0  0  0  0  0  0  0  0  0
   27.8470    9.1734   15.6414 C   0  0  2  0  0  0  0  0  0  0  0  0
   27.3056    9.4282   14.2330 C   0  0  0  0  0  0  0  0  0  0  0  0
   27.3790    7.7878   16.0945 C   0  0  2  0  0  0  0  0  0  0  0  0
   27.8638    7.5234   17.5209 C   0  0  1  0  0  0  0  0  0  0  0  0
   27.3556    8.6459   18.4295 C   0  0  1  0  0  0  0  0  0  0  0  0
  5  4  1  6  0  0  0
  5  8  1  0  0  0  0
  5 16  1  0  0  0  0
  8  7  1  6  0  0  0
  8 10  1  0  0  0  0
 10  1  1  1  0  0  0
 10 12  1  0  0  0  0
 11 18  1  0  0  0  0
 12 14  1  0  0  0  0
 14  2  1  1  0  0  0
 14 16  1  0  0  0  0
 16  9  1  6  0  0  0
 17  9  1  6  0  0  0
 17 11  1  0  0  0  0
 17 22  1  0  0  0  0
 18 19  1  6  0  0  0
 18 20  1  0  0  0  0
 19  3  1  0  0  0  0
 20 13  1  6  0  0  0
 20 21  1  0  0  0  0
 21 15  1  1  0  0  0
 21 22  1  0  0  0  0
 22  6  1  1  0  0  0
M  END
>  <CHROM.1>
-61.79266335,76.52323093,-53.76656040,28.46148326,10.59863537,17.08508851
0.41858307,-1.21284475,-0.98279396

>  <Name>
2fcx_lig

>  <RI>
4.08374e+07

>  <Rbt.Current_Directory>
/home/itssahil/PROJECTS/Mol_Feturizer/New_Systems/rnas/2fcx

>  <Rbt.Executable>
rbdock ($Id: //depot/dev/client3/rdock/2013.1/src/exe/rbdock.cxx#4 $)

>  <Rbt.Library>
libRbt.so (2013.1, Build901 2013/11/27)

>  <Rbt.Parameter_File>
/export/apps/rDock/src/rDock_2013.1_src/data/scripts/dock_solv.prm

>  <Rbt.Receptor>
prm/pocket_docking_7.prm

>  <SCORE>
-13.5829

>  <SCORE.INTER>
-14.0644

>  <SCORE.INTER.CONST>
1

>  <SCORE.INTER.POLAR>
-0.916515

>  <SCORE.INTER.ROT>
3

>  <SCORE.INTER.SOLV>
13.7766

>  <SCORE.INTER.VDW>
-16.5134

>  <SCORE.INTER.norm>
-0.639289

>  <SCORE.INTRA>
0.481504

>  <SCORE.INTRA.DIHEDRAL>
-3.4611

>  <SCORE.INTRA.DIHEDRAL.0>
4.88619

>  <SCORE.INTRA.POLAR>
0

>  <SCORE.INTRA.POLAR.0>
0

>  <SCORE.INTRA.REPUL>
0

>  <SCORE.INTRA.REPUL.0>
0

>  <SCORE.INTRA.SOLV>
2.20087

>  <SCORE.INTRA.SOLV.lig_0>
-73.8187

>  <SCORE.INTRA.VDW>
1.11162

>  <SCORE.INTRA.VDW.0>
-1.32335

>  <SCORE.INTRA.norm>
0.0218866

>  <SCORE.RESTR>
0

>  <SCORE.RESTR.CAVITY>
0

>  <SCORE.RESTR.norm>
0

>  <SCORE.SYSTEM>
0

>  <SCORE.SYSTEM.CONST>
0

>  <SCORE.SYSTEM.DIHEDRAL>
0

>  <SCORE.SYSTEM.SOLV>
0

>  <SCORE.SYSTEM.norm>
0

>  <SCORE.heavy>
22

>  <SCORE.norm>
-0.617403

>  <RMSD>
4.177

$$$$
2fcx_lig
 OpenBabel11021811433D
libRbt.so/2013.1/901 2013/11/27
 22 23  0  0  0  0  0  0  0  0999 V2000
   27.9059   11.7359   10.8133 N   0  0  0  0  0  0  0  0  0  0  0  0
   26.2775   10.6450   15.3114 N   0  0  0  0  0  0  0  0  0  0  0  0
   29.3382   14.1455   17.1233 N   0  0  0  0  0  0  0  0  0  0  0  0
   31.0591   10.8411   14.4293 O   0  0  0  0  0  0  0  0  0  0  0  0
   29.7946   10.4701   13.8737 C   0  0  2  0  0  0  0  0  0  0  0  0
   30.0076    7.7232   17.6755 N   0  0  0  0  0  0  0  0  0  0  0  0
   30.5459   10.9101   11.6376 O   0  0  0  0  0  0  0  0  0  0  0  0
   29.5354   11.2621   12.5900 C   0  0  1  0  0  0  0  0  0  0  0  0
   28.8785    9.7805   16.0223 O   0  0  0  0  0  0  0  0  0  0  0  0
   28.1553   10.9305   12.0178 C   0  0  1  0  0  0  0  0  0  0  0  0
   30.1739   11.4056   17.1051 O   0  0  0  0  0  0  0  0  0  0  0  0
   27.0606   11.2190   13.0507 C   0  0  0  0  0  0  0  0  0  0  0  0
   28.0213   11.4180   20.1130 O   0  0  0  0  0  0  0  0  0  0  0  0
   27.3163   10.3802   14.3060 C   0  0  1  0  0  0  0  0  0  0  0  0
   29.0614    8.7826   20.1688 O   0  0  0  0  0  0  0  0  0  0  0  0
   28.6891   10.6785   14.9160 C   0  0  2  0  0  0  0  0  0  0  0  0
   30.0976   10.0130   16.7486 C   0  0  1  0  0  0  0  0  0  0  0  0
   29.1214   11.8446   17.9874 C   0  0  2  0  0  0  0  0  0  0  0  0
   29.3012   13.3225   18.3414 C   0  0  0  0  0  0  0  0  0  0  0  0
   29.1243   11.0339   19.2863 C   0  0  2  0  0  0  0  0  0  0  0  0
   28.9956    9.5447   18.9620 C   0  0  1  0  0  0  0  0  0  0  0  0
   30.1304    9.1475   18.0141 C   0  0  1  0  0  0  0  0  0  0  0  0
  5  4  1  1  0  0  0
  5  8  1  0  0  0  0
  5 16  1  0  0  0  0
  8  7  1  6  0  0  0
  8 10  1  0  0  0  0
 10  1  1  6  0  0  0
 10 12  1  0  0  0  0
 11 18  1  0  0  0  0
 12 14  1  0  0  0  0
 14  2  1  1  0  0  0
 14 16  1  0  0  0  0
 16  9  1  1  0  0  0
 17  9  1  1  0  0  0
 17 11  1  0  0  0  0
 17 22  1  0  0  0  0
 18 19  1  1  0  0  0
 18 20  1  0  0  0  0
 19  3  1  0  0  0  0
 20 13  1  1  0  0  0
 20 21  1  0  0  0  0
 21 15  1  1  0  0  0
 21 22  1  0  0  0  0
 22  6  1  6  0  0  0
M  END
>  <CHROM.1>
63.59444918,51.68858354,56.97814145,29.04754996,10.78158436,15.95841417,1.77961104
1.27705822,-1.67008766

>  <Name>
2fcx_lig

>  <RI>
3.23342e+07

>  <Rbt.Current_Directory>
/home/itssahil/PROJECTS/Mol_Feturizer/New_Systems/rnas/2fcx

>  <Rbt.Executable>
rbdock ($Id: //depot/dev/client3/rdock/2013.1/src/exe/rbdock.cxx#4 $)

>  <Rbt.Library>
libRbt.so (2013.1, Build901 2013/11/27)

>  <Rbt.Parameter_File>
/export/apps/rDock/src/rDock_2013.1_src/data/scripts/dock_solv.prm

>  <Rbt.Receptor>
prm/pocket_docking_5.prm

>  <SCORE>
-5.62008

>  <SCORE.INTER>
-4.1764

>  <SCORE.INTER.CONST>
1

>  <SCORE.INTER.POLAR>
-0.194998

>  <SCORE.INTER.ROT>
3

>  <SCORE.INTER.SOLV>
13.8969

>  <SCORE.INTER.VDW>
-12.3666

>  <SCORE.INTER.norm>
-0.189837

>  <SCORE.INTRA>
-1.44368

>  <SCORE.INTRA.DIHEDRAL>
-4.44392

>  <SCORE.INTRA.DIHEDRAL.0>
4.88619

>  <SCORE.INTRA.POLAR>
0

>  <SCORE.INTRA.POLAR.0>
0

>  <SCORE.INTRA.REPUL>
0

>  <SCORE.INTRA.REPUL.0>
0

>  <SCORE.INTRA.SOLV>
-0.733618

>  <SCORE.INTRA.SOLV.lig_0>
-73.8187

>  <SCORE.INTRA.VDW>
1.14509

>  <SCORE.INTRA.VDW.0>
-1.32335

>  <SCORE.INTRA.norm>
-0.0656217

>  <SCORE.RESTR>
0

>  <SCORE.RESTR.CAVITY>
0

>  <SCORE.RESTR.norm>
0

>  <SCORE.SYSTEM>
0

>  <SCORE.SYSTEM.CONST>
0

>  <SCORE.SYSTEM.DIHEDRAL>
0

>  <SCORE.SYSTEM.SOLV>
0

>  <SCORE.SYSTEM.norm>
0

>  <SCORE.heavy>
22

>  <SCORE.norm>
-0.255458

>  <RMSD>
4.283

$$$$
2fcx_lig
 OpenBabel11021811433D
libRbt.so/2013.1/901 2013/11/27
 22 23  0  0  0  0  0  0  0  0999 V2000
   29.4608   15.0258   20.5464 N   0  0  0  0  0  0  0  0  0  0  0  0
   28.8538   10.2311   19.6993 N   0  0  0  0  0  0  0  0  0  0  0  0
   31.4289    6.3899   17.7016 N   0  0  0  0  0  0  0  0  0  0  0  0
   30.2084   13.1943   16.0849 O   0  0  0  0  0  0  0  0  0  0  0  0
   29.3967   13.0972   17.2584 C   0  0  2  0  0  0  0  0  0  0  0  0
   28.5399   10.2296   14.1124 N   0  0  0  0  0  0  0  0  0  0  0  0
   29.5859   15.4493   17.6941 O   0  0  0  0  0  0  0  0  0  0  0  0
   29.8185   14.1607   18.2749 C   0  0  1  0  0  0  0  0  0  0  0  0
   28.9095   10.7360   16.9137 O   0  0  0  0  0  0  0  0  0  0  0  0
   29.0082   14.0277   19.5664 C   0  0  1  0  0  0  0  0  0  0  0  0
   30.5070    9.0265   17.0442 O   0  0  0  0  0  0  0  0  0  0  0  0
   29.1731   12.6261   20.1637 C   0  0  0  0  0  0  0  0  0  0  0  0
   27.9551    6.3501   16.9664 O   0  0  0  0  0  0  0  0  0  0  0  0
   28.7008   11.5841   19.1459 C   0  0  1  0  0  0  0  0  0  0  0  0
   27.6234    7.5266   14.4099 O   0  0  0  0  0  0  0  0  0  0  0  0
   29.4851   11.6784   17.8338 C   0  0  2  0  0  0  0  0  0  0  0  0
   29.8875    9.9883   16.1705 C   0  0  1  0  0  0  0  0  0  0  0  0
   29.5977    8.0382   17.5688 C   0  0  2  0  0  0  0  0  0  0  0  0
   30.3455    7.0393   18.4547 C   0  0  0  0  0  0  0  0  0  0  0  0
   28.9197    7.2638   16.4352 C   0  0  2  0  0  0  0  0  0  0  0  0
   28.2034    8.2418   15.5025 C   0  0  1  0  0  0  0  0  0  0  0  0
   29.2179    9.2690   14.9931 C   0  0  1  0  0  0  0  0  0  0  0  0
  5  4  1  6  0  0  0
  5  8  1  0  0  0  0
  5 16  1  0  0  0  0
  8  7  1  6  0  0  0
  8 10  1  0  0  0  0
 10  1  1  1  0  0  0
 10 12  1  0  0  0  0
 11 18  1  0  0  0  0
 12 14  1  0  0  0  0
 14  2  1  1  0  0  0
 14 16  1  0  0  0  0
 16  9  1  6  0  0  0
 17  9  1  1  0  0  0
 17 11  1  0  0  0  0
 17 22  1  0  0  0  0
 18 19  1  1  0  0  0
 18 20  1  0  0  0  0
 19  3  1  0  0  0  0
 20 13  1  1  0  0  0
 20 21  1  0  0  0  0
 21 15  1  6  0  0  0
 21 22  1  0  0  0  0
 22  6  1  6  0  0  0
M  END
>  <CHROM.1>
102.69527495,73.00983073,-57.48520491,29.30622737,10.49567454,17.35857209
-1.31024796,1.37936850,-3.03922905

>  <Name>
2fcx_lig

>  <RI>
0

>  <Rbt.Current_Directory>
/home/itssahil/PROJECTS/Mol_Feturizer/New_Systems/rnas/2fcx

>  <Rbt.Executable>
rbdock ($Id: //depot/dev/client3/rdock/2013.1/src/exe/rbdock.cxx#4 $)

>  <Rbt.Library>
libRbt.so (2013.1, Build901 2013/11/27)

>  <Rbt.Parameter_File>
/export/apps/rDock/src/rDock_2013.1_src/data/scripts/dock_solv.prm

>  <Rbt.Receptor>
prm/pocket_docking_6.prm

>  <SCORE>
-9.99644

>  <SCORE.INTER>
-11.4624

>  <SCORE.INTER.CONST>
1

>  <SCORE.INTER.POLAR>
-0.326585

>  <SCORE.INTER.ROT>
3

>  <SCORE.INTER.SOLV>
16.2437

>  <SCORE.INTER.VDW>
-17.5675

>  <SCORE.INTER.norm>
-0.521017

>  <SCORE.INTRA>
1.45908

>  <SCORE.INTRA.DIHEDRAL>
1.7669

>  <SCORE.INTRA.DIHEDRAL.0>
4.88619

>  <SCORE.INTRA.POLAR>
0

>  <SCORE.INTRA.POLAR.0>
0

>  <SCORE.INTRA.REPUL>
0

>  <SCORE.INTRA.REPUL.0>
0

>  <SCORE.INTRA.SOLV>
2.60524

>  <SCORE.INTRA.SOLV.lig_0>
-73.8187

>  <SCORE.INTRA.VDW>
-0.726989

>  <SCORE.INTRA.VDW.0>
-1.32335

>  <SCORE.INTRA.norm>
0.066322

>  <SCORE.RESTR>
0.00683541

>  <SCORE.RESTR.CAVITY>
0.00683541

>  <SCORE.RESTR.norm>
0.0003107

>  <SCORE.SYSTEM>
0

>  <SCORE.SYSTEM.CONST>
0

>  <SCORE.SYSTEM.DIHEDRAL>
0

>  <SCORE.SYSTEM.SOLV>
0

>  <SCORE.SYSTEM.norm>
0

>  <SCORE.heavy>
22

>  <SCORE.norm>
-0.454384

>  <RMSD>
4.430

$$$$
2fcx_lig
 OpenBabel11021811433D
libRbt.so/2013.1/901 2013/11/27
 22 23  0  0  0  0  0  0  0  0999 V2000
   29.9044   15.7890   16.2925 N   0  0  0  0  0  0  0  0  0  0  0  0
   29.6932   11.1243   14.7856 N   0  0  0  0  0  0  0  0  0  0  0  0
   27.2387    7.3644   13.9262 N   0  0  0  0  0  0  0  0  0  0  0  0
   28.4915   12.2664   19.3607 O   0  0  0  0  0  0  0  0  0  0  0  0
   29.3800   12.5812   18.2851 C   0  0  2  0  0  0  0  0  0  0  0  0
   29.9755    8.5909   19.7420 N   0  0  0  0  0  0  0  0  0  0  0  0
   29.5922   14.8597   19.0073 O   0  0  0  0  0  0  0  0  0  0  0  0
   29.2179   14.0500   17.8865 C   0  0  1  0  0  0  0  0  0  0  0  0
   29.4677   10.2843   17.4803 O   0  0  0  0  0  0  0  0  0  0  0  0
   30.1100   14.3885   16.6900 C   0  0  1  0  0  0  0  0  0  0  0  0
   27.3912    9.2542   17.1352 O   0  0  0  0  0  0  0  0  0  0  0  0
   29.7865   13.4763   15.5019 C   0  0  0  0  0  0  0  0  0  0  0  0
   28.9055    6.2279   15.6420 O   0  0  0  0  0  0  0  0  0  0  0  0
   30.0014   12.0167   15.9120 C   0  0  1  0  0  0  0  0  0  0  0  0
   29.9053    6.1161   18.2912 O   0  0  0  0  0  0  0  0  0  0  0  0
   29.1272   11.6304   17.1087 C   0  0  2  0  0  0  0  0  0  0  0  0
   28.3920    9.5752   18.1190 C   0  0  1  0  0  0  0  0  0  0  0  0
   27.8545    8.3734   16.0919 C   0  0  2  0  0  0  0  0  0  0  0  0
   26.7200    8.0579   15.1146 C   0  0  0  0  0  0  0  0  0  0  0  0
   28.3666    7.0549   16.6780 C   0  0  2  0  0  0  0  0  0  0  0  0
   29.4703    7.3409   17.6977 C   0  0  1  0  0  0  0  0  0  0  0  0
   28.9195    8.2889   18.7662 C   0  0  1  0  0  0  0  0  0  0  0  0
  5  4  1  1  0  0  0
  5  8  1  0  0  0  0
  5 16  1  0  0  0  0
  8  7  1  1  0  0  0
  8 10  1  0  0  0  0
 10  1  1  6  0  0  0
 10 12  1  0  0  0  0
 11 18  1  0  0  0  0
 12 14  1  0  0  0  0
 14  2  1  6  0  0  0
 14 16  1  0  0  0  0
 16  9  1  1  0  0  0
 17  9  1  6  0  0  0
 17 11  1  0  0  0  0
 17 22  1  0  0  0  0
 18 19  1  6  0  0  0
 18 20  1  0  0  0  0
 19  3  1  0  0  0  0
 20 13  1  6  0  0  0
 20 21  1  0  0  0  0
 21 15  1  1  0  0  0
 21 22  1  0  0  0  0
 22  6  1  1  0  0  0
M  END
>  <CHROM.1>
86.75157798,72.33859576,169.83579509,28.99164027,10.37011583,17.08943668
0.90322886,-1.30884607,-0.54572869

>  <Name>
2fcx_lig

>  <RI>
0

>  <Rbt.Current_Directory>
/home/itssahil/PROJECTS/Mol_Feturizer/New_Systems/rnas/2fcx

>  <Rbt.Executable>
rbdock ($Id: //depot/dev/client3/rdock/2013.1/src/exe/rbdock.cxx#4 $)

>  <Rbt.Library>
libRbt.so (2013.1, Build901 2013/11/27)

>  <Rbt.Parameter_File>
/export/apps/rDock/src/rDock_2013.1_src/data/scripts/dock_solv.prm

>  <Rbt.Receptor>
prm/pocket_docking_6.prm

>  <SCORE>
-16.6317

>  <SCORE.INTER>
-16.6939

>  <SCORE.INTER.CONST>
1

>  <SCORE.INTER.POLAR>
-1.54465

>  <SCORE.INTER.ROT>
3

>  <SCORE.INTER.SOLV>
13.9128

>  <SCORE.INTER.VDW>
-16.218

>  <SCORE.INTER.norm>
-0.758815

>  <SCORE.INTRA>
0.0622057

>  <SCORE.INTRA.DIHEDRAL>
-0.792536

>  <SCORE.INTRA.DIHEDRAL.0>
4.88619

>  <SCORE.INTRA.POLAR>
0

>  <SCORE.INTRA.POLAR.0>
0

>  <SCORE.INTRA.REPUL>
0

>  <SCORE.INTRA.REPUL.0>
0

>  <SCORE.INTRA.SOLV>
1.33809

>  <SCORE.INTRA.SOLV.lig_0>
-73.8187

>  <SCORE.INTRA.VDW>
-0.21057

>  <SCORE.INTRA.VDW.0>
-1.32335

>  <SCORE.INTRA.norm>
0.00282753

>  <SCORE.RESTR>
0

>  <SCORE.RESTR.CAVITY>
0

>  <SCORE.RESTR.norm>
0

>  <SCORE.SYSTEM>
0

>  <SCORE.SYSTEM.CONST>
0

>  <SCORE.SYSTEM.DIHEDRAL>
0

>  <SCORE.SYSTEM.SOLV>
0

>  <SCORE.SYSTEM.norm>
0

>  <SCORE.heavy>
22

>  <SCORE.norm>
-0.755988

>  <RMSD>
4.537

$$$$
2fcx_lig
 OpenBabel11021811433D
libRbt.so/2013.1/901 2013/11/27
 22 23  0  0  0  0  0  0  0  0999 V2000
   29.7156   13.4550   20.9875 N   0  0  0  0  0  0  0  0  0  0  0  0
   28.9873    9.4870   18.1948 N   0  0  0  0  0  0  0  0  0  0  0  0
   29.0849    6.9038   17.4376 N   0  0  0  0  0  0  0  0  0  0  0  0
   29.9921   13.7752   16.1254 O   0  0  0  0  0  0  0  0  0  0  0  0
   29.3028   13.1473   17.2099 C   0  0  2  0  0  0  0  0  0  0  0  0
   28.9395   11.7387   13.1122 N   0  0  0  0  0  0  0  0  0  0  0  0
   29.5542   15.0811   18.6083 O   0  0  0  0  0  0  0  0  0  0  0  0
   29.8341   13.6778   18.5436 C   0  0  1  0  0  0  0  0  0  0  0  0
   28.7642   11.1548   15.9174 O   0  0  0  0  0  0  0  0  0  0  0  0
   29.1579   12.9664   19.7179 C   0  0  1  0  0  0  0  0  0  0  0  0
   29.6474    9.0139   15.5591 O   0  0  0  0  0  0  0  0  0  0  0  0
   29.3713   11.4518   19.6252 C   0  0  0  0  0  0  0  0  0  0  0  0
   26.4704    7.7041   14.1908 O   0  0  0  0  0  0  0  0  0  0  0  0
   28.7898   10.9393   18.3046 C   0  0  1  0  0  0  0  0  0  0  0  0
   27.1612    9.6557   12.2559 O   0  0  0  0  0  0  0  0  0  0  0  0
   29.4377   11.6238   17.0974 C   0  0  2  0  0  0  0  0  0  0  0  0
   29.5994   10.3619   15.0562 C   0  0  1  0  0  0  0  0  0  0  0  0
   28.3709    8.3436   15.5654 C   0  0  2  0  0  0  0  0  0  0  0  0
   28.5215    6.9100   16.0793 C   0  0  0  0  0  0  0  0  0  0  0  0
   27.7752    8.2904   14.1559 C   0  0  2  0  0  0  0  0  0  0  0  0
   27.6581    9.7084   13.5945 C   0  0  1  0  0  0  0  0  0  0  0  0
   29.0397   10.3670   13.6284 C   0  0  1  0  0  0  0  0  0  0  0  0
  5  4  1  6  0  0  0
  5  8  1  0  0  0  0
  5 16  1  0  0  0  0
  8  7  1  1  0  0  0
  8 10  1  0  0  0  0
 10  1  1  1  0  0  0
 10 12  1  0  0  0  0
 11 18  1  0  0  0  0
 12 14  1  0  0  0  0
 14  2  1  6  0  0  0
 14 16  1  0  0  0  0
 16  9  1  6  0  0  0
 17  9  1  1  0  0  0
 17 11  1  0  0  0  0
 17 22  1  0  0  0  0
 18 19  1  6  0  0  0
 18 20  1  0  0  0  0
 19  3  1  0  0  0  0
 20 13  1  1  0  0  0
 20 21  1  0  0  0  0
 21 15  1  6  0  0  0
 21 22  1  0  0  0  0
 22  6  1  1  0  0  0
M  END
>  <CHROM.1>
125.96546494,81.55907931,58.64886133,28.86028334,10.72223172,16.37443915
0.00025317,1.33494588,2.35884199

>  <Name>
2fcx_lig

>  <RI>
0

>  <Rbt.Current_Directory>
/home/itssahil/PROJECTS/Mol_Feturizer/New_Systems/rnas/2fcx

>  <Rbt.Executable>
rbdock ($Id: //depot/dev/client3/rdock/2013.1/src/exe/rbdock.cxx#4 $)

>  <Rbt.Library>
libRbt.so (2013.1, Build901 2013/11/27)

>  <Rbt.Parameter_File>
/export/apps/rDock/src/rDock_2013.1_src/data/scripts/dock_solv.prm

>  <Rbt.Receptor>
prm/pocket_docking_6.prm

>  <SCORE>
-8.42894

>  <SCORE.INTER>
-12.0275

>  <SCORE.INTER.CONST>
1

>  <SCORE.INTER.POLAR>
-0.500489

>  <SCORE.INTER.ROT>
3

>  <SCORE.INTER.SOLV>
11.2334

>  <SCORE.INTER.VDW>
-15.6945

>  <SCORE.INTER.norm>
-0.546703

>  <SCORE.INTRA>
3.59854

>  <SCORE.INTRA.DIHEDRAL>
4.21407

>  <SCORE.INTRA.DIHEDRAL.0>
4.88619

>  <SCORE.INTRA.POLAR>
0

>  <SCORE.INTRA.POLAR.0>
0

>  <SCORE.INTRA.REPUL>
0

>  <SCORE.INTRA.REPUL.0>
0

>  <SCORE.INTRA.SOLV>
4.38858

>  <SCORE.INTRA.SOLV.lig_0>
-73.8187

>  <SCORE.INTRA.VDW>
-0.702792

>  <SCORE.INTRA.VDW.0>
-1.32335

>  <SCORE.INTRA.norm>
0.16357

>  <SCORE.RESTR>
0

>  <SCORE.RESTR.CAVITY>
0

>  <SCORE.RESTR.norm>
0

>  <SCORE.SYSTEM>
0

>  <SCORE.SYSTEM.CONST>
0

>  <SCORE.SYSTEM.DIHEDRAL>
0

>  <SCORE.SYSTEM.SOLV>
0

>  <SCORE.SYSTEM.norm>
0

>  <SCORE.heavy>
22

>  <SCORE.norm>
-0.383134

>  <RMSD>
4.635

$$$$
2fcx_lig
 OpenBabel11021811433D
libRbt.so/2013.1/901 2013/11/27
 22 23  0  0  0  0  0  0  0  0999 V2000
   25.7869   10.1893   12.1442 N   0  0  0  0  0  0  0  0  0  0  0  0
   25.5108   10.1680   17.0430 N   0  0  0  0  0  0  0  0  0  0  0  0
   26.8736    3.7615   20.5052 N   0  0  0  0  0  0  0  0  0  0  0  0
   28.0735    6.7387   14.7295 O   0  0  0  0  0  0  0  0  0  0  0  0
   26.8961    7.5476   14.6594 C   0  0  2  0  0  0  0  0  0  0  0  0
   29.0281    8.9931   17.2213 N   0  0  0  0  0  0  0  0  0  0  0  0
   26.9230    7.5384   12.2599 O   0  0  0  0  0  0  0  0  0  0  0  0
   26.9299    8.4109   13.3961 C   0  0  1  0  0  0  0  0  0  0  0  0
   26.5584    7.5375   17.0712 O   0  0  0  0  0  0  0  0  0  0  0  0
   25.7116    9.3354   13.3387 C   0  0  1  0  0  0  0  0  0  0  0  0
   26.5173    7.3047   19.4027 O   0  0  0  0  0  0  0  0  0  0  0  0
   25.6491   10.2220   14.5871 C   0  0  0  0  0  0  0  0  0  0  0  0
   29.0984    4.6553   19.3932 O   0  0  0  0  0  0  0  0  0  0  0  0
   25.5687    9.3356   15.8331 C   0  0  1  0  0  0  0  0  0  0  0  0
   30.5583    6.8751   18.4074 O   0  0  0  0  0  0  0  0  0  0  0  0
   26.7699    8.3908   15.9341 C   0  0  2  0  0  0  0  0  0  0  0  0
   26.9904    8.1186   18.3136 C   0  0  1  0  0  0  0  0  0  0  0  0
   27.0503    5.9650   19.4093 C   0  0  2  0  0  0  0  0  0  0  0  0
   26.5244    5.1856   20.6166 C   0  0  0  0  0  0  0  0  0  0  0  0
   28.5797    5.9862   19.4781 C   0  0  2  0  0  0  0  0  0  0  0  0
   29.1347    6.8017   18.3092 C   0  0  1  0  0  0  0  0  0  0  0  0
   28.5211    8.2037   18.3518 C   0  0  1  0  0  0  0  0  0  0  0  0
  5  4  1  1  0  0  0
  5  8  1  0  0  0  0
  5 16  1  0  0  0  0
  8  7  1  6  0  0  0
  8 10  1  0  0  0  0
 10  1  1  6  0  0  0
 10 12  1  0  0  0  0
 11 18  1  0  0  0  0
 12 14  1  0  0  0  0
 14  2  1  1  0  0  0
 14 16  1  0  0  0  0
 16  9  1  1  0  0  0
 17  9  1  6  0  0  0
 17 11  1  0  0  0  0
 17 22  1  0  0  0  0
 18 19  1  1  0  0  0
 18 20  1  0  0  0  0
 19  3  1  0  0  0  0
 20 13  1  6  0  0  0
 20 21  1  0  0  0  0
 21 15  1  1  0  0  0
 21 22  1  0  0  0  0
 22  6  1  6  0  0  0
M  END
>  <CHROM.1>
154.70742612,169.54139872,170.22574370,27.26702272,7.56445898,16.84252148
1.89179065,0.68146471,-1.25926639

>  <Name>
2fcx_lig

>  <RI>
3.23342e+07

>  <Rbt.Current_Directory>
/home/itssahil/PROJECTS/Mol_Feturizer/New_Systems/rnas/2fcx

>  <Rbt.Executable>
rbdock ($Id: //depot/dev/client3/rdock/2013.1/src/exe/rbdock.cxx#4 $)

>  <Rbt.Library>
libRbt.so (2013.1, Build901 2013/11/27)

>  <Rbt.Parameter_File>
/export/apps/rDock/src/rDock_2013.1_src/data/scripts/dock_solv.prm

>  <Rbt.Receptor>
prm/pocket_docking_5.prm

>  <SCORE>
-12.6565

>  <SCORE.INTER>
-15.2511

>  <SCORE.INTER.CONST>
1

>  <SCORE.INTER.POLAR>
-1.80698

>  <SCORE.INTER.ROT>
3

>  <SCORE.INTER.SOLV>
14.9562

>  <SCORE.INTER.VDW>
-14.7295

>  <SCORE.INTER.norm>
-0.693232

>  <SCORE.INTRA>
2.59456

>  <SCORE.INTRA.DIHEDRAL>
-1.2875

>  <SCORE.INTRA.DIHEDRAL.0>
4.88619

>  <SCORE.INTRA.POLAR>
0

>  <SCORE.INTRA.POLAR.0>
0

>  <SCORE.INTRA.REPUL>
0

>  <SCORE.INTRA.REPUL.0>
0

>  <SCORE.INTRA.SOLV>
4.45109

>  <SCORE.INTRA.SOLV.lig_0>
-73.8187

>  <SCORE.INTRA.VDW>
1.01276

>  <SCORE.INTRA.VDW.0>
-1.32335

>  <SCORE.INTRA.norm>
0.117935

>  <SCORE.RESTR>
0

>  <SCORE.RESTR.CAVITY>
0

>  <SCORE.RESTR.norm>
0

>  <SCORE.SYSTEM>
0

>  <SCORE.SYSTEM.CONST>
0

>  <SCORE.SYSTEM.DIHEDRAL>
0

>  <SCORE.SYSTEM.SOLV>
0

>  <SCORE.SYSTEM.norm>
0

>  <SCORE.heavy>
22

>  <SCORE.norm>
-0.575297

>  <RMSD>
4.693

$$$$
2fcx_lig
 OpenBabel11021811433D
libRbt.so/2013.1/901 2013/11/27
 22 23  0  0  0  0  0  0  0  0999 V2000
   24.8749   11.4548    9.1636 N   0  0  0  0  0  0  0  0  0  0  0  0
   25.4239   11.3298   14.0378 N   0  0  0  0  0  0  0  0  0  0  0  0
   31.4692   12.7776   14.9114 N   0  0  0  0  0  0  0  0  0  0  0  0
   28.9877    9.7233   11.1398 O   0  0  0  0  0  0  0  0  0  0  0  0
   27.5679    9.7987   11.2944 C   0  0  2  0  0  0  0  0  0  0  0  0
   28.8579    7.3793   15.0445 N   0  0  0  0  0  0  0  0  0  0  0  0
   27.2178    9.7867    8.9204 O   0  0  0  0  0  0  0  0  0  0  0  0
   26.9520   10.5433   10.1075 C   0  0  1  0  0  0  0  0  0  0  0  0
   27.6682    9.6323   13.7220 O   0  0  0  0  0  0  0  0  0  0  0  0
   25.4401   10.6961   10.2890 C   0  0  1  0  0  0  0  0  0  0  0  0
   29.6869   10.8153   13.8530 O   0  0  0  0  0  0  0  0  0  0  0  0
   25.1262   11.4293   11.5975 C   0  0  0  0  0  0  0  0  0  0  0  0
   29.2496   11.5766   17.4461 O   0  0  0  0  0  0  0  0  0  0  0  0
   25.7120   10.6406   12.7720 C   0  0  1  0  0  0  0  0  0  0  0  0
   29.4778    8.7523   17.4868 O   0  0  0  0  0  0  0  0  0  0  0  0
   27.2269   10.4620   12.6344 C   0  0  2  0  0  0  0  0  0  0  0  0
   29.0981    9.5026   13.8020 C   0  0  1  0  0  0  0  0  0  0  0  0
   29.3136   11.5817   15.0158 C   0  0  2  0  0  0  0  0  0  0  0  0
   30.0111   12.9437   15.0058 C   0  0  0  0  0  0  0  0  0  0  0  0
   29.7056   10.8487   16.3016 C   0  0  2  0  0  0  0  0  0  0  0  0
   29.0623    9.4611   16.3178 C   0  0  1  0  0  0  0  0  0  0  0  0
   29.4860    8.7073   15.0544 C   0  0  1  0  0  0  0  0  0  0  0  0
  5  4  1  6  0  0  0
  5  8  1  0  0  0  0
  5 16  1  0  0  0  0
  8  7  1  6  0  0  0
  8 10  1  0  0  0  0
 10  1  1  6  0  0  0
 10 12  1  0  0  0  0
 11 18  1  0  0  0  0
 12 14  1  0  0  0  0
 14  2  1  1  0  0  0
 14 16  1  0  0  0  0
 16  9  1  1  0  0  0
 17  9  1  1  0  0  0
 17 11  1  0  0  0  0
 17 22  1  0  0  0  0
 18 19  1  6  0  0  0
 18 20  1  0  0  0  0
 19  3  1  0  0  0  0
 20 13  1  1  0  0  0
 20 21  1  0  0  0  0
 21 15  1  1  0  0  0
 21 22  1  0  0  0  0
 22  6  1  6  0  0  0
M  END
>  <CHROM.1>
66.11461856,54.40870694,-55.90176562,28.10181768,10.43934798,13.46567542
-2.96268966,1.01375043,2.96033548

>  <Name>
2fcx_lig

>  <RI>
4.08374e+07

>  <Rbt.Current_Directory>
/home/itssahil/PROJECTS/Mol_Feturizer/New_Systems/rnas/2fcx

>  <Rbt.Executable>
rbdock ($Id: //depot/dev/client3/rdock/2013.1/src/exe/rbdock.cxx#4 $)

>  <Rbt.Library>
libRbt.so (2013.1, Build901 2013/11/27)

>  <Rbt.Parameter_File>
/export/apps/rDock/src/rDock_2013.1_src/data/scripts/dock_solv.prm

>  <Rbt.Receptor>
prm/pocket_docking_7.prm

>  <SCORE>
-6.02222

>  <SCORE.INTER>
-4.89715

>  <SCORE.INTER.CONST>
1

>  <SCORE.INTER.POLAR>
-0.863723

>  <SCORE.INTER.ROT>
3

>  <SCORE.INTER.SOLV>
11.4722

>  <SCORE.INTER.VDW>
-9.80974

>  <SCORE.INTER.norm>
-0.222598

>  <SCORE.INTRA>
-1.12507

>  <SCORE.INTRA.DIHEDRAL>
-4.48322

>  <SCORE.INTRA.DIHEDRAL.0>
4.88619

>  <SCORE.INTRA.POLAR>
0

>  <SCORE.INTRA.POLAR.0>
0

>  <SCORE.INTRA.REPUL>
0

>  <SCORE.INTRA.REPUL.0>
0

>  <SCORE.INTRA.SOLV>
0.393029

>  <SCORE.INTRA.SOLV.lig_0>
-73.8187

>  <SCORE.INTRA.VDW>
0.920031

>  <SCORE.INTRA.VDW.0>
-1.32335

>  <SCORE.INTRA.norm>
-0.0511394

>  <SCORE.RESTR>
0

>  <SCORE.RESTR.CAVITY>
0

>  <SCORE.RESTR.norm>
0

>  <SCORE.SYSTEM>
0

>  <SCORE.SYSTEM.CONST>
0

>  <SCORE.SYSTEM.DIHEDRAL>
0

>  <SCORE.SYSTEM.SOLV>
0

>  <SCORE.SYSTEM.norm>
0

>  <SCORE.heavy>
22

>  <SCORE.norm>
-0.273737

>  <RMSD>
4.698

$$$$
2fcx_lig
 OpenBabel11021811433D
libRbt.so/2013.1/901 2013/11/27
 22 23  0  0  0  0  0  0  0  0999 V2000
   31.7090   17.6616   18.3921 N   0  0  0  0  0  0  0  0  0  0  0  0
   28.7158   13.7883   18.7283 N   0  0  0  0  0  0  0  0  0  0  0  0
   29.0451    9.0237   18.9380 N   0  0  0  0  0  0  0  0  0  0  0  0
   31.6817   14.2539   14.8985 O   0  0  0  0  0  0  0  0  0  0  0  0
   30.8623   14.9763   15.8217 C   0  0  2  0  0  0  0  0  0  0  0  0
   28.2711   12.4516   13.4022 N   0  0  0  0  0  0  0  0  0  0  0  0
   32.2375   16.9352   15.6491 O   0  0  0  0  0  0  0  0  0  0  0  0
   31.7114   15.9918   16.5900 C   0  0  1  0  0  0  0  0  0  0  0  0
   29.2241   13.1840   16.0091 O   0  0  0  0  0  0  0  0  0  0  0  0
   30.8660   16.7264   17.6330 C   0  0  1  0  0  0  0  0  0  0  0  0
   30.3784   11.1528   16.1925 O   0  0  0  0  0  0  0  0  0  0  0  0
   30.2217   15.7300   18.6028 C   0  0  0  0  0  0  0  0  0  0  0  0
   27.2998    9.2262   16.8938 O   0  0  0  0  0  0  0  0  0  0  0  0
   29.3414   14.7554   17.8154 C   0  0  1  0  0  0  0  0  0  0  0  0
   26.8165   10.1284   14.2513 O   0  0  0  0  0  0  0  0  0  0  0  0
   30.1457   13.9947   16.7570 C   0  0  2  0  0  0  0  0  0  0  0  0
   29.8587   12.1271   15.2688 C   0  0  1  0  0  0  0  0  0  0  0  0
   29.3682   10.5003   16.9879 C   0  0  2  0  0  0  0  0  0  0  0  0
   30.0041    9.4592   17.9118 C   0  0  0  0  0  0  0  0  0  0  0  0
   28.3444    9.7923   16.0963 C   0  0  2  0  0  0  0  0  0  0  0  0
   27.7257   10.7996   15.1256 C   0  0  1  0  0  0  0  0  0  0  0  0
   28.8483   11.4645   14.3245 C   0  0  1  0  0  0  0  0  0  0  0  0
  5  4  1  6  0  0  0
  5  8  1  0  0  0  0
  5 16  1  0  0  0  0
  8  7  1  6  0  0  0
  8 10  1  0  0  0  0
 10  1  1  1  0  0  0
 10 12  1  0  0  0  0
 11 18  1  0  0  0  0
 12 14  1  0  0  0  0
 14  2  1  1  0  0  0
 14 16  1  0  0  0  0
 16  9  1  6  0  0  0
 17  9  1  1  0  0  0
 17 11  1  0  0  0  0
 17 22  1  0  0  0  0
 18 19  1  1  0  0  0
 18 20  1  0  0  0  0
 19  3  1  0  0  0  0
 20 13  1  1  0  0  0
 20 21  1  0  0  0  0
 21 15  1  6  0  0  0
 21 22  1  0  0  0  0
 22  6  1  6  0  0  0
M  END
>  <CHROM.1>
77.46847354,68.75641870,166.54128994,29.66356499,12.89159098,16.44357289
-0.08376509,1.13063319,1.80993952

>  <Name>
2fcx_lig

>  <RI>
1.15031e+07

>  <Rbt.Current_Directory>
/home/itssahil/PROJECTS/Mol_Feturizer/New_Systems/rnas/2fcx

>  <Rbt.Executable>
rbdock ($Id: //depot/dev/client3/rdock/2013.1/src/exe/rbdock.cxx#4 $)

>  <Rbt.Library>
libRbt.so (2013.1, Build901 2013/11/27)

>  <Rbt.Parameter_File>
/export/apps/rDock/src/rDock_2013.1_src/data/scripts/dock_solv.prm

>  <Rbt.Receptor>
prm/pocket_docking_8.prm

>  <SCORE>
-10.5685

>  <SCORE.INTER>
-9.77009

>  <SCORE.INTER.CONST>
1

>  <SCORE.INTER.POLAR>
0

>  <SCORE.INTER.ROT>
3

>  <SCORE.INTER.SOLV>
14.0865

>  <SCORE.INTER.VDW>
-16.8089

>  <SCORE.INTER.norm>
-0.444095

>  <SCORE.INTRA>
-0.798359

>  <SCORE.INTRA.DIHEDRAL>
-2.46828

>  <SCORE.INTRA.DIHEDRAL.0>
4.88619

>  <SCORE.INTRA.POLAR>
0

>  <SCORE.INTRA.POLAR.0>
0

>  <SCORE.INTRA.REPUL>
0

>  <SCORE.INTRA.REPUL.0>
0

>  <SCORE.INTRA.SOLV>
0.644318

>  <SCORE.INTRA.SOLV.lig_0>
-73.8187

>  <SCORE.INTRA.VDW>
0.113623

>  <SCORE.INTRA.VDW.0>
-1.32335

>  <SCORE.INTRA.norm>
-0.0362891

>  <SCORE.RESTR>
0

>  <SCORE.RESTR.CAVITY>
0

>  <SCORE.RESTR.norm>
0

>  <SCORE.SYSTEM>
0

>  <SCORE.SYSTEM.CONST>
0

>  <SCORE.SYSTEM.DIHEDRAL>
0

>  <SCORE.SYSTEM.SOLV>
0

>  <SCORE.SYSTEM.norm>
0

>  <SCORE.heavy>
22

>  <SCORE.norm>
-0.480384

>  <RMSD>
4.698

$$$$
2fcx_lig
 OpenBabel11021811433D
libRbt.so/2013.1/901 2013/11/27
 22 23  0  0  0  0  0  0  0  0999 V2000
   29.6780   15.8174   17.5119 N   0  0  0  0  0  0  0  0  0  0  0  0
   29.2330   11.6212   15.0082 N   0  0  0  0  0  0  0  0  0  0  0  0
   25.5058    9.4569   15.6097 N   0  0  0  0  0  0  0  0  0  0  0  0
   29.0039   11.5973   19.8689 O   0  0  0  0  0  0  0  0  0  0  0  0
   29.6401   12.2096   18.7438 C   0  0  2  0  0  0  0  0  0  0  0  0
   30.8638    8.1707   19.0350 N   0  0  0  0  0  0  0  0  0  0  0  0
   29.9611   14.2697   19.9317 O   0  0  0  0  0  0  0  0  0  0  0  0
   29.3727   13.7166   18.7486 C   0  0  1  0  0  0  0  0  0  0  0  0
   29.5951   10.1706   17.4128 O   0  0  0  0  0  0  0  0  0  0  0  0
   29.9865   14.3799   17.5136 C   0  0  1  0  0  0  0  0  0  0  0  0
   27.5344    9.0735   17.6161 O   0  0  0  0  0  0  0  0  0  0  0  0
   29.4353   13.7461   16.2319 C   0  0  0  0  0  0  0  0  0  0  0  0
   28.4617    6.4376   15.1925 O   0  0  0  0  0  0  0  0  0  0  0  0
   29.7567   12.2490   16.2296 C   0  0  1  0  0  0  0  0  0  0  0  0
   30.3147    5.9648   17.2837 O   0  0  0  0  0  0  0  0  0  0  0  0
   29.1611   11.5404   17.4498 C   0  0  2  0  0  0  0  0  0  0  0  0
   28.8108    9.2970   18.2431 C   0  0  1  0  0  0  0  0  0  0  0  0
   27.6155    8.4066   16.3403 C   0  0  2  0  0  0  0  0  0  0  0  0
   26.2157    8.1785   15.7655 C   0  0  0  0  0  0  0  0  0  0  0  0
   28.3075    7.0477   16.4777 C   0  0  2  0  0  0  0  0  0  0  0  0
   29.6931    7.2377   17.0970 C   0  0  1  0  0  0  0  0  0  0  0  0
   29.5382    7.9609   18.4375 C   0  0  1  0  0  0  0  0  0  0  0  0
  5  4  1  1  0  0  0
  5  8  1  0  0  0  0
  5 16  1  0  0  0  0
  8  7  1  1  0  0  0
  8 10  1  0  0  0  0
 10  1  1  6  0  0  0
 10 12  1  0  0  0  0
 11 18  1  0  0  0  0
 12 14  1  0  0  0  0
 14  2  1  6  0  0  0
 14 16  1  0  0  0  0
 16  9  1  1  0  0  0
 17  9  1  6  0  0  0
 17 11  1  0  0  0  0
 17 22  1  0  0  0  0
 18 19  1  1  0  0  0
 18 20  1  0  0  0  0
 19  3  1  0  0  0  0
 20 13  1  6  0  0  0
 20 21  1  0  0  0  0
 21 15  1  1  0  0  0
 21 22  1  0  0  0  0
 22  6  1  6  0  0  0
M  END
>  <CHROM.1>
77.33397551,73.99126233,58.47193796,28.98521620,10.35723312,17.36696016,1.30318556
-0.89223683,0.00347922

>  <Name>
2fcx_lig

>  <RI>
1.15031e+07

>  <Rbt.Current_Directory>
/home/itssahil/PROJECTS/Mol_Feturizer/New_Systems/rnas/2fcx

>  <Rbt.Executable>
rbdock ($Id: //depot/dev/client3/rdock/2013.1/src/exe/rbdock.cxx#4 $)

>  <Rbt.Library>
libRbt.so (2013.1, Build901 2013/11/27)

>  <Rbt.Parameter_File>
/export/apps/rDock/src/rDock_2013.1_src/data/scripts/dock_solv.prm

>  <Rbt.Receptor>
prm/pocket_docking_8.prm

>  <SCORE>
-19.0139

>  <SCORE.INTER>
-17.5115

>  <SCORE.INTER.CONST>
1

>  <SCORE.INTER.POLAR>
-1.25899

>  <SCORE.INTER.ROT>
3

>  <SCORE.INTER.SOLV>
15.7456

>  <SCORE.INTER.VDW>
-18.3263

>  <SCORE.INTER.norm>
-0.795978

>  <SCORE.INTRA>
-1.5024

>  <SCORE.INTRA.DIHEDRAL>
-2.56145

>  <SCORE.INTRA.DIHEDRAL.0>
4.88619

>  <SCORE.INTRA.POLAR>
0

>  <SCORE.INTRA.POLAR.0>
0

>  <SCORE.INTRA.REPUL>
0

>  <SCORE.INTRA.REPUL.0>
0

>  <SCORE.INTRA.SOLV>
-0.256975

>  <SCORE.INTRA.SOLV.lig_0>
-73.8187

>  <SCORE.INTRA.VDW>
-0.0931829

>  <SCORE.INTRA.VDW.0>
-1.32335

>  <SCORE.INTRA.norm>
-0.0682907

>  <SCORE.RESTR>
0

>  <SCORE.RESTR.CAVITY>
0

>  <SCORE.RESTR.norm>
0

>  <SCORE.SYSTEM>
0

>  <SCORE.SYSTEM.CONST>
0

>  <SCORE.SYSTEM.DIHEDRAL>
0

>  <SCORE.SYSTEM.SOLV>
0

>  <SCORE.SYSTEM.norm>
0

>  <SCORE.heavy>
22

>  <SCORE.norm>
-0.864269

>  <RMSD>
4.939

$$$$
2fcx_lig
 OpenBabel11021811433D
libRbt.so/2013.1/901 2013/11/27
 22 23  0  0  0  0  0  0  0  0999 V2000
   29.6629   15.8235   17.5082 N   0  0  0  0  0  0  0  0  0  0  0  0
   29.2481   11.6081   15.0318 N   0  0  0  0  0  0  0  0  0  0  0  0
   25.4986    9.4665   15.7324 N   0  0  0  0  0  0  0  0  0  0  0  0
   29.0286   11.6129   19.8930 O   0  0  0  0  0  0  0  0  0  0  0  0
   29.6575   12.2234   18.7629 C   0  0  2  0  0  0  0  0  0  0  0  0
   30.9192    8.1721   19.0436 N   0  0  0  0  0  0  0  0  0  0  0  0
   29.9637   14.2935   19.9372 O   0  0  0  0  0  0  0  0  0  0  0  0
   29.3775   13.7281   18.7587 C   0  0  1  0  0  0  0  0  0  0  0  0
   29.6269   10.1757   17.4448 O   0  0  0  0  0  0  0  0  0  0  0  0
   29.9834   14.3887   17.5183 C   0  0  1  0  0  0  0  0  0  0  0  0
   27.5684    9.0808   17.6799 O   0  0  0  0  0  0  0  0  0  0  0  0
   29.4350   13.7423   16.2417 C   0  0  0  0  0  0  0  0  0  0  0  0
   28.4533    6.4470   15.2381 O   0  0  0  0  0  0  0  0  0  0  0  0
   29.7688   12.2479   16.2482 C   0  0  1  0  0  0  0  0  0  0  0  0
   30.3393    5.9693   17.2985 O   0  0  0  0  0  0  0  0  0  0  0  0
   29.1816   11.5421   17.4740 C   0  0  2  0  0  0  0  0  0  0  0  0
   28.8551    9.3019   18.2864 C   0  0  1  0  0  0  0  0  0  0  0  0
   27.6281    8.4155   16.4021 C   0  0  2  0  0  0  0  0  0  0  0  0
   26.2189    8.1899   15.8497 C   0  0  0  0  0  0  0  0  0  0  0  0
   28.3206    7.0556   16.5264 C   0  0  2  0  0  0  0  0  0  0  0  0
   29.7163    7.2432   17.1235 C   0  0  1  0  0  0  0  0  0  0  0  0
   29.5839    7.9648   18.4672 C   0  0  1  0  0  0  0  0  0  0  0  0
  5  4  1  1  0  0  0
  5  8  1  0  0  0  0
  5 16  1  0  0  0  0
  8  7  1  1  0  0  0
  8 10  1  0  0  0  0
 10  1  1  6  0  0  0
 10 12  1  0  0  0  0
 11 18  1  0  0  0  0
 12 14  1  0  0  0  0
 14  2  1  6  0  0  0
 14 16  1  0  0  0  0
 16  9  1  1  0  0  0
 17  9  1  6  0  0  0
 17 11  1  0  0  0  0
 17 22  1  0  0  0  0
 18 19  1  1  0  0  0
 18 20  1  0  0  0  0
 19  3  1  0  0  0  0
 20 13  1  6  0  0  0
 20 21  1  0  0  0  0
 21 15  1  1  0  0  0
 21 22  1  0  0  0  0
 22  6  1  6  0  0  0
M  END
>  <CHROM.1>
77.08349801,73.04322866,57.34110134,29.00114996,10.36391695,17.39962775,1.31396712
-0.87786484,0.00751173

>  <Name>
2fcx_lig

>  <RI>
0

>  <Rbt.Current_Directory>
/home/itssahil/PROJECTS/Mol_Feturizer/New_Systems/rnas/2fcx

>  <Rbt.Executable>
rbdock ($Id: //depot/dev/client3/rdock/2013.1/src/exe/rbdock.cxx#4 $)

>  <Rbt.Library>
libRbt.so (2013.1, Build901 2013/11/27)

>  <Rbt.Parameter_File>
/export/apps/rDock/src/rDock_2013.1_src/data/scripts/dock_solv.prm

>  <Rbt.Receptor>
prm/pocket_docking_6.prm

>  <SCORE>
-18.953

>  <SCORE.INTER>
-17.3655

>  <SCORE.INTER.CONST>
1

>  <SCORE.INTER.POLAR>
-1.24143

>  <SCORE.INTER.ROT>
3

>  <SCORE.INTER.SOLV>
16.0102

>  <SCORE.INTER.VDW>
-18.3757

>  <SCORE.INTER.norm>
-0.789343

>  <SCORE.INTRA>
-1.58747

>  <SCORE.INTRA.DIHEDRAL>
-2.69691

>  <SCORE.INTRA.DIHEDRAL.0>
4.88619

>  <SCORE.INTRA.POLAR>
0

>  <SCORE.INTRA.POLAR.0>
0

>  <SCORE.INTRA.REPUL>
0

>  <SCORE.INTRA.REPUL.0>
0

>  <SCORE.INTRA.SOLV>
-0.298905

>  <SCORE.INTRA.SOLV.lig_0>
-73.8187

>  <SCORE.INTRA.VDW>
-0.0895574

>  <SCORE.INTRA.VDW.0>
-1.32335

>  <SCORE.INTRA.norm>
-0.0721576

>  <SCORE.RESTR>
0

>  <SCORE.RESTR.CAVITY>
0

>  <SCORE.RESTR.norm>
0

>  <SCORE.SYSTEM>
0

>  <SCORE.SYSTEM.CONST>
0

>  <SCORE.SYSTEM.DIHEDRAL>
0

>  <SCORE.SYSTEM.SOLV>
0

>  <SCORE.SYSTEM.norm>
0

>  <SCORE.heavy>
22

>  <SCORE.norm>
-0.861501

>  <RMSD>
4.952

$$$$
2fcx_lig
 OpenBabel11021811433D
libRbt.so/2013.1/901 2013/11/27
 22 23  0  0  0  0  0  0  0  0999 V2000
   29.5995   15.8023   17.5729 N   0  0  0  0  0  0  0  0  0  0  0  0
   29.2492   11.5972   15.0692 N   0  0  0  0  0  0  0  0  0  0  0  0
   25.5166    9.4481   15.7452 N   0  0  0  0  0  0  0  0  0  0  0  0
   29.0153   11.5688   19.9297 O   0  0  0  0  0  0  0  0  0  0  0  0
   29.6392   12.1947   18.8052 C   0  0  2  0  0  0  0  0  0  0  0  0
   30.9660    8.1417   19.0331 N   0  0  0  0  0  0  0  0  0  0  0  0
   29.9138   14.2615   19.9932 O   0  0  0  0  0  0  0  0  0  0  0  0
   29.3389   13.6954   18.8096 C   0  0  1  0  0  0  0  0  0  0  0  0
   29.6403   10.1551   17.4744 O   0  0  0  0  0  0  0  0  0  0  0  0
   29.9394   14.3719   17.5751 C   0  0  1  0  0  0  0  0  0  0  0  0
   27.5913    9.0461   17.7265 O   0  0  0  0  0  0  0  0  0  0  0  0
   29.4036   13.7261   16.2928 C   0  0  0  0  0  0  0  0  0  0  0  0
   28.4560    6.4438   15.2442 O   0  0  0  0  0  0  0  0  0  0  0  0
   29.7576   12.2363   16.2911 C   0  0  1  0  0  0  0  0  0  0  0  0
   30.3735    5.9545   17.2725 O   0  0  0  0  0  0  0  0  0  0  0  0
   29.1764   11.5150   17.5107 C   0  0  2  0  0  0  0  0  0  0  0  0
   28.8852    9.2679   18.3173 C   0  0  1  0  0  0  0  0  0  0  0  0
   27.6366    8.3949   16.4409 C   0  0  2  0  0  0  0  0  0  0  0  0
   26.2210    8.1673   15.9059 C   0  0  0  0  0  0  0  0  0  0  0  0
   28.3382    7.0377   16.5407 C   0  0  2  0  0  0  0  0  0  0  0  0
   29.7411    7.2267   17.1201 C   0  0  1  0  0  0  0  0  0  0  0  0
   29.6238    7.9330   18.4734 C   0  0  1  0  0  0  0  0  0  0  0  0
  5  4  1  1  0  0  0
  5  8  1  0  0  0  0
  5 16  1  0  0  0  0
  8  7  1  1  0  0  0
  8 10  1  0  0  0  0
 10  1  1  6  0  0  0
 10 12  1  0  0  0  0
 11 18  1  0  0  0  0
 12 14  1  0  0  0  0
 14  2  1  6  0  0  0
 14 16  1  0  0  0  0
 16  9  1  1  0  0  0
 17  9  1  6  0  0  0
 17 11  1  0  0  0  0
 17 22  1  0  0  0  0
 18 19  1  1  0  0  0
 18 20  1  0  0  0  0
 19  3  1  0  0  0  0
 20 13  1  6  0  0  0
 20 21  1  0  0  0  0
 21 15  1  1  0  0  0
 21 22  1  0  0  0  0
 22  6  1  6  0  0  0
M  END
>  <CHROM.1>
76.57015813,72.24110984,60.34009350,29.00061814,10.34082503,17.43017179,1.33192629
-0.87216715,0.02808586

>  <Name>
2fcx_lig

>  <RI>
1.15031e+07

>  <Rbt.Current_Directory>
/home/itssahil/PROJECTS/Mol_Feturizer/New_Systems/rnas/2fcx

>  <Rbt.Executable>
rbdock ($Id: //depot/dev/client3/rdock/2013.1/src/exe/rbdock.cxx#4 $)

>  <Rbt.Library>
libRbt.so (2013.1, Build901 2013/11/27)

>  <Rbt.Parameter_File>
/export/apps/rDock/src/rDock_2013.1_src/data/scripts/dock_solv.prm

>  <Rbt.Receptor>
prm/pocket_docking_8.prm

>  <SCORE>
-18.8729

>  <SCORE.INTER>
-17.1906

>  <SCORE.INTER.CONST>
1

>  <SCORE.INTER.POLAR>
-1.21773

>  <SCORE.INTER.ROT>
3

>  <SCORE.INTER.SOLV>
16.3045

>  <SCORE.INTER.VDW>
-18.4361

>  <SCORE.INTER.norm>
-0.78139

>  <SCORE.INTRA>
-1.68232

>  <SCORE.INTRA.DIHEDRAL>
-2.89112

>  <SCORE.INTRA.DIHEDRAL.0>
4.88619

>  <SCORE.INTRA.POLAR>
0

>  <SCORE.INTRA.POLAR.0>
0

>  <SCORE.INTRA.REPUL>
0

>  <SCORE.INTRA.REPUL.0>
0

>  <SCORE.INTRA.SOLV>
-0.340262

>  <SCORE.INTRA.SOLV.lig_0>
-73.8187

>  <SCORE.INTRA.VDW>
-0.0666316

>  <SCORE.INTRA.VDW.0>
-1.32335

>  <SCORE.INTRA.norm>
-0.0764692

>  <SCORE.RESTR>
0

>  <SCORE.RESTR.CAVITY>
0

>  <SCORE.RESTR.norm>
0

>  <SCORE.SYSTEM>
0

>  <SCORE.SYSTEM.CONST>
0

>  <SCORE.SYSTEM.DIHEDRAL>
0

>  <SCORE.SYSTEM.SOLV>
0

>  <SCORE.SYSTEM.norm>
0

>  <SCORE.heavy>
22

>  <SCORE.norm>
-0.857859

>  <RMSD>
4.976

$$$$
2fcx_lig
 OpenBabel11021811433D
libRbt.so/2013.1/901 2013/11/27
 22 23  0  0  0  0  0  0  0  0999 V2000
   29.5880   15.7646   17.5814 N   0  0  0  0  0  0  0  0  0  0  0  0
   29.2701   11.5391   15.1079 N   0  0  0  0  0  0  0  0  0  0  0  0
   25.5316    9.4672   15.7867 N   0  0  0  0  0  0  0  0  0  0  0  0
   29.0178   11.5456   19.9676 O   0  0  0  0  0  0  0  0  0  0  0  0
   29.6426   12.1666   18.8408 C   0  0  2  0  0  0  0  0  0  0  0  0
   30.9561    8.0728   19.0684 N   0  0  0  0  0  0  0  0  0  0  0  0
   29.9014   14.2436   20.0144 O   0  0  0  0  0  0  0  0  0  0  0  0
   29.3341   13.6656   18.8328 C   0  0  1  0  0  0  0  0  0  0  0  0
   29.6598   10.1171   17.5253 O   0  0  0  0  0  0  0  0  0  0  0  0
   29.9357   14.3361   17.5956 C   0  0  1  0  0  0  0  0  0  0  0  0
   27.5989    9.0246   17.7507 O   0  0  0  0  0  0  0  0  0  0  0  0
   29.4083   13.6779   16.3162 C   0  0  0  0  0  0  0  0  0  0  0  0
   28.4558    6.4440   15.2431 O   0  0  0  0  0  0  0  0  0  0  0  0
   29.7704   12.1901   16.3269 C   0  0  1  0  0  0  0  0  0  0  0  0
   30.3550    5.9125   17.2779 O   0  0  0  0  0  0  0  0  0  0  0  0
   29.1884   11.4747   17.5497 C   0  0  2  0  0  0  0  0  0  0  0  0
   28.8908    9.2271   18.3526 C   0  0  1  0  0  0  0  0  0  0  0  0
   27.6467    8.3884   16.4576 C   0  0  2  0  0  0  0  0  0  0  0  0
   26.2326    8.1806   15.9107 C   0  0  0  0  0  0  0  0  0  0  0  0
   28.3349    7.0235   16.5458 C   0  0  2  0  0  0  0  0  0  0  0  0
   29.7356    7.1923   17.1366 C   0  0  1  0  0  0  0  0  0  0  0  0
   29.6158    7.8836   18.4974 C   0  0  1  0  0  0  0  0  0  0  0  0
  5  4  1  1  0  0  0
  5  8  1  0  0  0  0
  5 16  1  0  0  0  0
  8  7  1  1  0  0  0
  8 10  1  0  0  0  0
 10  1  1  6  0  0  0
 10 12  1  0  0  0  0
 11 18  1  0  0  0  0
 12 14  1  0  0  0  0
 14  2  1  6  0  0  0
 14 16  1  0  0  0  0
 16  9  1  1  0  0  0
 17  9  1  6  0  0  0
 17 11  1  0  0  0  0
 17 22  1  0  0  0  0
 18 19  1  1  0  0  0
 18 20  1  0  0  0  0
 19  3  1  0  0  0  0
 20 13  1  6  0  0  0
 20 21  1  0  0  0  0
 21 15  1  1  0  0  0
 21 22  1  0  0  0  0
 22  6  1  6  0  0  0
M  END
>  <CHROM.1>
77.67176037,70.81735263,59.17938854,29.00270591,10.31168138,17.45474628,1.33436300
-0.87878666,0.03034320

>  <Name>
2fcx_lig

>  <RI>
0

>  <Rbt.Current_Directory>
/home/itssahil/PROJECTS/Mol_Feturizer/New_Systems/rnas/2fcx

>  <Rbt.Executable>
rbdock ($Id: //depot/dev/client3/rdock/2013.1/src/exe/rbdock.cxx#4 $)

>  <Rbt.Library>
libRbt.so (2013.1, Build901 2013/11/27)

>  <Rbt.Parameter_File>
/export/apps/rDock/src/rDock_2013.1_src/data/scripts/dock_solv.prm

>  <Rbt.Receptor>
prm/pocket_docking_6.prm

>  <SCORE>
-18.8856

>  <SCORE.INTER>
-17.2129

>  <SCORE.INTER.CONST>
1

>  <SCORE.INTER.POLAR>
-1.22492

>  <SCORE.INTER.ROT>
3

>  <SCORE.INTER.SOLV>
16.2101

>  <SCORE.INTER.VDW>
-18.3956

>  <SCORE.INTER.norm>
-0.782407

>  <SCORE.INTRA>
-1.67262

>  <SCORE.INTRA.DIHEDRAL>
-2.87857

>  <SCORE.INTRA.DIHEDRAL.0>
4.88619

>  <SCORE.INTRA.POLAR>
0

>  <SCORE.INTRA.POLAR.0>
0

>  <SCORE.INTRA.REPUL>
0

>  <SCORE.INTRA.REPUL.0>
0

>  <SCORE.INTRA.SOLV>
-0.238262

>  <SCORE.INTRA.SOLV.lig_0>
-73.8187

>  <SCORE.INTRA.VDW>
-0.114203

>  <SCORE.INTRA.VDW.0>
-1.32335

>  <SCORE.INTRA.norm>
-0.0760282

>  <SCORE.RESTR>
0

>  <SCORE.RESTR.CAVITY>
0

>  <SCORE.RESTR.norm>
0

>  <SCORE.SYSTEM>
0

>  <SCORE.SYSTEM.CONST>
0

>  <SCORE.SYSTEM.DIHEDRAL>
0

>  <SCORE.SYSTEM.SOLV>
0

>  <SCORE.SYSTEM.norm>
0

>  <SCORE.heavy>
22

>  <SCORE.norm>
-0.858435

>  <RMSD>
4.986

$$$$
2fcx_lig
 OpenBabel11021811433D
libRbt.so/2013.1/901 2013/11/27
 22 23  0  0  0  0  0  0  0  0999 V2000
   29.5477   15.6966   17.5930 N   0  0  0  0  0  0  0  0  0  0  0  0
   29.2691   11.4572   15.1386 N   0  0  0  0  0  0  0  0  0  0  0  0
   25.5683    9.4522   15.7882 N   0  0  0  0  0  0  0  0  0  0  0  0
   29.0451   11.4806   19.9996 O   0  0  0  0  0  0  0  0  0  0  0  0
   29.6554   12.1048   18.8667 C   0  0  2  0  0  0  0  0  0  0  0  0
   30.9777    7.9711   19.0634 N   0  0  0  0  0  0  0  0  0  0  0  0
   29.8946   14.1897   20.0303 O   0  0  0  0  0  0  0  0  0  0  0  0
   29.3278   13.5998   18.8544 C   0  0  1  0  0  0  0  0  0  0  0  0
   29.6910   10.0503   17.5594 O   0  0  0  0  0  0  0  0  0  0  0  0
   29.9136   14.2727   17.6110 C   0  0  1  0  0  0  0  0  0  0  0  0
   27.6257    8.9612   17.7605 O   0  0  0  0  0  0  0  0  0  0  0  0
   29.3871   13.6026   16.3374 C   0  0  0  0  0  0  0  0  0  0  0  0
   28.4763    6.4276   15.2034 O   0  0  0  0  0  0  0  0  0  0  0  0
   29.7682   12.1196   16.3520 C   0  0  1  0  0  0  0  0  0  0  0  0
   30.3709    5.8488   17.2297 O   0  0  0  0  0  0  0  0  0  0  0  0
   29.2025   11.4019   17.5811 C   0  0  2  0  0  0  0  0  0  0  0  0
   28.9176    9.1470   18.3679 C   0  0  1  0  0  0  0  0  0  0  0  0
   27.6728    8.3506   16.4552 C   0  0  2  0  0  0  0  0  0  0  0  0
   26.2588    8.1589   15.9025 C   0  0  0  0  0  0  0  0  0  0  0  0
   28.3558    6.9817   16.5172 C   0  0  2  0  0  0  0  0  0  0  0  0
   29.7564    7.1335   17.1130 C   0  0  1  0  0  0  0  0  0  0  0  0
   29.6374    7.7981   18.4871 C   0  0  1  0  0  0  0  0  0  0  0  0
  5  4  1  1  0  0  0
  5  8  1  0  0  0  0
  5 16  1  0  0  0  0
  8  7  1  1  0  0  0
  8 10  1  0  0  0  0
 10  1  1  6  0  0  0
 10 12  1  0  0  0  0
 11 18  1  0  0  0  0
 12 14  1  0  0  0  0
 14  2  1  6  0  0  0
 14 16  1  0  0  0  0
 16  9  1  1  0  0  0
 17  9  1  6  0  0  0
 17 11  1  0  0  0  0
 17 22  1  0  0  0  0
 18 19  1  1  0  0  0
 18 20  1  0  0  0  0
 19  3  1  0  0  0  0
 20 13  1  6  0  0  0
 20 21  1  0  0  0  0
 21 15  1  1  0  0  0
 21 22  1  0  0  0  0
 22  6  1  6  0  0  0
M  END
>  <CHROM.1>
79.17370319,69.20274526,59.84689940,29.01434518,10.25149929,17.46020507,1.34618721
-0.88253856,0.04542497

>  <Name>
2fcx_lig

>  <RI>
0

>  <Rbt.Current_Directory>
/home/itssahil/PROJECTS/Mol_Feturizer/New_Systems/rnas/2fcx

>  <Rbt.Executable>
rbdock ($Id: //depot/dev/client3/rdock/2013.1/src/exe/rbdock.cxx#4 $)

>  <Rbt.Library>
libRbt.so (2013.1, Build901 2013/11/27)

>  <Rbt.Parameter_File>
/export/apps/rDock/src/rDock_2013.1_src/data/scripts/dock_solv.prm

>  <Rbt.Receptor>
prm/pocket_docking_6.prm

>  <SCORE>
-18.988

>  <SCORE.INTER>
-17.3295

>  <SCORE.INTER.CONST>
1

>  <SCORE.INTER.POLAR>
-1.24905

>  <SCORE.INTER.ROT>
3

>  <SCORE.INTER.SOLV>
16.211

>  <SCORE.INTER.VDW>
-18.3932

>  <SCORE.INTER.norm>
-0.787704

>  <SCORE.INTRA>
-1.65847

>  <SCORE.INTRA.DIHEDRAL>
-2.80091

>  <SCORE.INTRA.DIHEDRAL.0>
4.88619

>  <SCORE.INTRA.POLAR>
0

>  <SCORE.INTRA.POLAR.0>
0

>  <SCORE.INTRA.REPUL>
0

>  <SCORE.INTRA.REPUL.0>
0

>  <SCORE.INTRA.SOLV>
-0.0826924

>  <SCORE.INTRA.SOLV.lig_0>
-73.8187

>  <SCORE.INTRA.VDW>
-0.216665

>  <SCORE.INTRA.VDW.0>
-1.32335

>  <SCORE.INTRA.norm>
-0.075385

>  <SCORE.RESTR>
0

>  <SCORE.RESTR.CAVITY>
0

>  <SCORE.RESTR.norm>
0

>  <SCORE.SYSTEM>
0

>  <SCORE.SYSTEM.CONST>
0

>  <SCORE.SYSTEM.DIHEDRAL>
0

>  <SCORE.SYSTEM.SOLV>
0

>  <SCORE.SYSTEM.norm>
0

>  <SCORE.heavy>
22

>  <SCORE.norm>
-0.863089

>  <RMSD>
4.993

$$$$
2fcx_lig
 OpenBabel11021811433D
libRbt.so/2013.1/901 2013/11/27
 22 23  0  0  0  0  0  0  0  0999 V2000
   26.7492    9.3460    7.3704 N   0  0  0  0  0  0  0  0  0  0  0  0
   24.7078    7.4209   11.3954 N   0  0  0  0  0  0  0  0  0  0  0  0
   23.6238   11.5335   13.3954 N   0  0  0  0  0  0  0  0  0  0  0  0
   28.3495   10.6230   11.8006 O   0  0  0  0  0  0  0  0  0  0  0  0
   27.8448    9.5382   11.0170 C   0  0  2  0  0  0  0  0  0  0  0  0
   28.5416    7.6104   15.1342 N   0  0  0  0  0  0  0  0  0  0  0  0
   28.8791   10.3793    9.0218 O   0  0  0  0  0  0  0  0  0  0  0  0
   27.6142    9.9981    9.5756 C   0  0  1  0  0  0  0  0  0  0  0  0
   26.8709    8.4007   12.9376 O   0  0  0  0  0  0  0  0  0  0  0  0
   27.0075    8.8704    8.7374 C   0  0  1  0  0  0  0  0  0  0  0  0
   26.2560   10.3589   14.0687 O   0  0  0  0  0  0  0  0  0  0  0  0
   25.6927    8.3858    9.3577 C   0  0  0  0  0  0  0  0  0  0  0  0
   23.9401    8.5729   16.3334 O   0  0  0  0  0  0  0  0  0  0  0  0
   25.9586    7.8879   10.7811 C   0  0  1  0  0  0  0  0  0  0  0  0
   26.4366    7.4583   17.0785 O   0  0  0  0  0  0  0  0  0  0  0  0
   26.5672    8.9848   11.6599 C   0  0  2  0  0  0  0  0  0  0  0  0
   27.2839    9.3614   13.9247 C   0  0  1  0  0  0  0  0  0  0  0  0
   24.9992    9.8418   14.5505 C   0  0  2  0  0  0  0  0  0  0  0  0
   23.9800   10.9725   14.7072 C   0  0  0  0  0  0  0  0  0  0  0  0
   25.1748    9.1592   15.9097 C   0  0  2  0  0  0  0  0  0  0  0  0
   26.2263    8.0541   15.7969 C   0  0  1  0  0  0  0  0  0  0  0  0
   27.5273    8.6646   15.2690 C   0  0  1  0  0  0  0  0  0  0  0  0
  5  4  1  1  0  0  0
  5  8  1  0  0  0  0
  5 16  1  0  0  0  0
  8  7  1  6  0  0  0
  8 10  1  0  0  0  0
 10  1  1  6  0  0  0
 10 12  1  0  0  0  0
 11 18  1  0  0  0  0
 12 14  1  0  0  0  0
 14  2  1  1  0  0  0
 14 16  1  0  0  0  0
 16  9  1  1  0  0  0
 17  9  1  6  0  0  0
 17 11  1  0  0  0  0
 17 22  1  0  0  0  0
 18 19  1  1  0  0  0
 18 20  1  0  0  0  0
 19  3  1  0  0  0  0
 20 13  1  6  0  0  0
 20 21  1  0  0  0  0
 21 15  1  1  0  0  0
 21 22  1  0  0  0  0
 22  6  1  6  0  0  0
M  END
>  <CHROM.1>
67.48741885,56.83989108,66.70416865,26.38207416,9.16497477,12.75066449,1.31549572
0.31927039,-1.40457743

>  <Name>
2fcx_lig

>  <RI>
4.08374e+07

>  <Rbt.Current_Directory>
/home/itssahil/PROJECTS/Mol_Feturizer/New_Systems/rnas/2fcx

>  <Rbt.Executable>
rbdock ($Id: //depot/dev/client3/rdock/2013.1/src/exe/rbdock.cxx#4 $)

>  <Rbt.Library>
libRbt.so (2013.1, Build901 2013/11/27)

>  <Rbt.Parameter_File>
/export/apps/rDock/src/rDock_2013.1_src/data/scripts/dock_solv.prm

>  <Rbt.Receptor>
prm/pocket_docking_7.prm

>  <SCORE>
-17.0717

>  <SCORE.INTER>
-15.1319

>  <SCORE.INTER.CONST>
1

>  <SCORE.INTER.POLAR>
-1.89631

>  <SCORE.INTER.ROT>
3

>  <SCORE.INTER.SOLV>
11.2899

>  <SCORE.INTER.VDW>
-13.1302

>  <SCORE.INTER.norm>
-0.687811

>  <SCORE.INTRA>
-1.9398

>  <SCORE.INTRA.DIHEDRAL>
-4.39819

>  <SCORE.INTRA.DIHEDRAL.0>
4.88619

>  <SCORE.INTRA.POLAR>
0

>  <SCORE.INTRA.POLAR.0>
0

>  <SCORE.INTRA.REPUL>
0

>  <SCORE.INTRA.REPUL.0>
0

>  <SCORE.INTRA.SOLV>
-0.82843

>  <SCORE.INTRA.SOLV.lig_0>
-73.8187

>  <SCORE.INTRA.VDW>
0.673508

>  <SCORE.INTRA.VDW.0>
-1.32335

>  <SCORE.INTRA.norm>
-0.0881728

>  <SCORE.RESTR>
0

>  <SCORE.RESTR.CAVITY>
0

>  <SCORE.RESTR.norm>
0

>  <SCORE.SYSTEM>
0

>  <SCORE.SYSTEM.CONST>
0

>  <SCORE.SYSTEM.DIHEDRAL>
0

>  <SCORE.SYSTEM.SOLV>
0

>  <SCORE.SYSTEM.norm>
0

>  <SCORE.heavy>
22

>  <SCORE.norm>
-0.775984

>  <RMSD>
5.143

$$$$
2fcx_lig
 OpenBabel11021811433D
libRbt.so/2013.1/901 2013/11/27
 22 23  0  0  0  0  0  0  0  0999 V2000
   23.9647    8.9852    9.9424 N   0  0  0  0  0  0  0  0  0  0  0  0
   25.3827   10.6900   14.3193 N   0  0  0  0  0  0  0  0  0  0  0  0
   29.3967   13.0464   13.5824 N   0  0  0  0  0  0  0  0  0  0  0  0
   28.4411    8.0238   11.6326 O   0  0  0  0  0  0  0  0  0  0  0  0
   27.0699    8.1868   12.0053 C   0  0  2  0  0  0  0  0  0  0  0  0
   29.1082    6.8993   15.6046 N   0  0  0  0  0  0  0  0  0  0  0  0
   26.3014    7.2910    9.9160 O   0  0  0  0  0  0  0  0  0  0  0  0
   26.2175    8.4449   10.7606 C   0  0  1  0  0  0  0  0  0  0  0  0
   27.6108    8.9437   14.2560 O   0  0  0  0  0  0  0  0  0  0  0  0
   24.7570    8.6920   11.1457 C   0  0  1  0  0  0  0  0  0  0  0  0
   29.5556   10.2172   13.9599 O   0  0  0  0  0  0  0  0  0  0  0  0
   24.6486    9.8712   12.1183 C   0  0  0  0  0  0  0  0  0  0  0  0
   29.6042   11.3453   17.4822 O   0  0  0  0  0  0  0  0  0  0  0  0
   25.4713    9.5683   13.3737 C   0  0  1  0  0  0  0  0  0  0  0  0
   29.9979    8.5542   17.7735 O   0  0  0  0  0  0  0  0  0  0  0  0
   26.9437    9.3137   13.0377 C   0  0  2  0  0  0  0  0  0  0  0  0
   29.0421    8.8833   14.1316 C   0  0  1  0  0  0  0  0  0  0  0  0
   29.3125   11.0891   15.0823 C   0  0  2  0  0  0  0  0  0  0  0  0
   29.9217   12.4699   14.8292 C   0  0  0  0  0  0  0  0  0  0  0  0
   29.9295   10.5171   16.3615 C   0  0  2  0  0  0  0  0  0  0  0  0
   29.3762    9.1138   16.6151 C   0  0  1  0  0  0  0  0  0  0  0  0
   29.6537    8.2456   15.3850 C   0  0  1  0  0  0  0  0  0  0  0  0
  5  4  1  6  0  0  0
  5  8  1  0  0  0  0
  5 16  1  0  0  0  0
  8  7  1  6  0  0  0
  8 10  1  0  0  0  0
 10  1  1  6  0  0  0
 10 12  1  0  0  0  0
 11 18  1  0  0  0  0
 12 14  1  0  0  0  0
 14  2  1  1  0  0  0
 14 16  1  0  0  0  0
 16  9  1  1  0  0  0
 17  9  1  1  0  0  0
 17 11  1  0  0  0  0
 17 22  1  0  0  0  0
 18 19  1  6  0  0  0
 18 20  1  0  0  0  0
 19  3  1  0  0  0  0
 20 13  1  1  0  0  0
 20 21  1  0  0  0  0
 21 15  1  1  0  0  0
 21 22  1  0  0  0  0
 22  6  1  1  0  0  0
M  END
>  <CHROM.1>
69.03519136,69.43063823,56.36071386,27.83575908,9.46527908,13.80167437,2.80409174
0.85926458,-2.99947969

>  <Name>
2fcx_lig

>  <RI>
3.23342e+07

>  <Rbt.Current_Directory>
/home/itssahil/PROJECTS/Mol_Feturizer/New_Systems/rnas/2fcx

>  <Rbt.Executable>
rbdock ($Id: //depot/dev/client3/rdock/2013.1/src/exe/rbdock.cxx#4 $)

>  <Rbt.Library>
libRbt.so (2013.1, Build901 2013/11/27)

>  <Rbt.Parameter_File>
/export/apps/rDock/src/rDock_2013.1_src/data/scripts/dock_solv.prm

>  <Rbt.Receptor>
prm/pocket_docking_5.prm

>  <SCORE>
-6.37282

>  <SCORE.INTER>
-4.51873

>  <SCORE.INTER.CONST>
1

>  <SCORE.INTER.POLAR>
-0.466055

>  <SCORE.INTER.ROT>
3

>  <SCORE.INTER.SOLV>
10.987

>  <SCORE.INTER.VDW>
-10.7213

>  <SCORE.INTER.norm>
-0.205397

>  <SCORE.INTRA>
-1.85409

>  <SCORE.INTRA.DIHEDRAL>
-4.00259

>  <SCORE.INTRA.DIHEDRAL.0>
4.88619

>  <SCORE.INTRA.POLAR>
0

>  <SCORE.INTRA.POLAR.0>
0

>  <SCORE.INTRA.REPUL>
0

>  <SCORE.INTRA.REPUL.0>
0

>  <SCORE.INTRA.SOLV>
-0.702367

>  <SCORE.INTRA.SOLV.lig_0>
-73.8187

>  <SCORE.INTRA.VDW>
0.49839

>  <SCORE.INTRA.VDW.0>
-1.32335

>  <SCORE.INTRA.norm>
-0.0842767

>  <SCORE.RESTR>
0

>  <SCORE.RESTR.CAVITY>
0

>  <SCORE.RESTR.norm>
0

>  <SCORE.SYSTEM>
0

>  <SCORE.SYSTEM.CONST>
0

>  <SCORE.SYSTEM.DIHEDRAL>
0

>  <SCORE.SYSTEM.SOLV>
0

>  <SCORE.SYSTEM.norm>
0

>  <SCORE.heavy>
22

>  <SCORE.norm>
-0.289673

>  <RMSD>
5.159

$$$$
2fcx_lig
 OpenBabel11021811433D
libRbt.so/2013.1/901 2013/11/27
 22 23  0  0  0  0  0  0  0  0999 V2000
   23.2078    9.0249   12.7056 N   0  0  0  0  0  0  0  0  0  0  0  0
   25.4324   10.2553   16.9023 N   0  0  0  0  0  0  0  0  0  0  0  0
   29.1969   11.7389   14.3923 N   0  0  0  0  0  0  0  0  0  0  0  0
   27.6507    7.2922   13.7434 O   0  0  0  0  0  0  0  0  0  0  0  0
   26.3831    7.6462   14.3031 C   0  0  2  0  0  0  0  0  0  0  0  0
   28.9120    6.4635   18.1370 N   0  0  0  0  0  0  0  0  0  0  0  0
   25.2184    6.9923   12.3096 O   0  0  0  0  0  0  0  0  0  0  0  0
   25.4305    8.0990   13.1940 C   0  0  1  0  0  0  0  0  0  0  0  0
   27.3235    8.1900   16.4828 O   0  0  0  0  0  0  0  0  0  0  0  0
   24.0906    8.5492   13.7808 C   0  0  1  0  0  0  0  0  0  0  0  0
   29.2578    9.1311   15.5528 O   0  0  0  0  0  0  0  0  0  0  0  0
   24.2993    9.6779   14.7961 C   0  0  0  0  0  0  0  0  0  0  0  0
   29.9524   11.1843   18.5500 O   0  0  0  0  0  0  0  0  0  0  0  0
   25.2170    9.1850   15.9184 C   0  0  1  0  0  0  0  0  0  0  0  0
   30.2380    8.5597   19.5799 O   0  0  0  0  0  0  0  0  0  0  0  0
   26.5737    8.7230   15.3783 C   0  0  2  0  0  0  0  0  0  0  0  0
   28.7088    7.9556   16.1767 C   0  0  1  0  0  0  0  0  0  0  0  0
   29.2521   10.3005   16.3962 C   0  0  2  0  0  0  0  0  0  0  0  0
   29.8842   11.4888   15.6680 C   0  0  0  0  0  0  0  0  0  0  0  0
   30.0415   10.0488   17.6837 C   0  0  2  0  0  0  0  0  0  0  0  0
   29.4633    8.8337   18.4109 C   0  0  1  0  0  0  0  0  0  0  0  0
   29.4852    7.6344   17.4596 C   0  0  1  0  0  0  0  0  0  0  0  0
  5  4  1  6  0  0  0
  5  8  1  0  0  0  0
  5 16  1  0  0  0  0
  8  7  1  6  0  0  0
  8 10  1  0  0  0  0
 10  1  1  6  0  0  0
 10 12  1  0  0  0  0
 11 18  1  0  0  0  0
 12 14  1  0  0  0  0
 14  2  1  1  0  0  0
 14 16  1  0  0  0  0
 16  9  1  1  0  0  0
 17  9  1  1  0  0  0
 17 11  1  0  0  0  0
 17 22  1  0  0  0  0
 18 19  1  6  0  0  0
 18 20  1  0  0  0  0
 19  3  1  0  0  0  0
 20 13  1  1  0  0  0
 20 21  1  0  0  0  0
 21 15  1  1  0  0  0
 21 22  1  0  0  0  0
 22  6  1  1  0  0  0
M  END
>  <CHROM.1>
70.94479047,49.11181559,55.97169134,27.54078875,8.94650560,15.80325804,-3.13314090
0.72927718,2.88515627

>  <Name>
2fcx_lig

>  <RI>
0

>  <Rbt.Current_Directory>
/home/itssahil/PROJECTS/Mol_Feturizer/New_Systems/rnas/2fcx

>  <Rbt.Executable>
rbdock ($Id: //depot/dev/client3/rdock/2013.1/src/exe/rbdock.cxx#4 $)

>  <Rbt.Library>
libRbt.so (2013.1, Build901 2013/11/27)

>  <Rbt.Parameter_File>
/export/apps/rDock/src/rDock_2013.1_src/data/scripts/dock_solv.prm

>  <Rbt.Receptor>
prm/pocket_docking_6.prm

>  <SCORE>
-13.8905

>  <SCORE.INTER>
-12.361

>  <SCORE.INTER.CONST>
1

>  <SCORE.INTER.POLAR>
-0.855187

>  <SCORE.INTER.ROT>
3

>  <SCORE.INTER.SOLV>
13.2805

>  <SCORE.INTER.VDW>
-15.4169

>  <SCORE.INTER.norm>
-0.561865

>  <SCORE.INTRA>
-1.52952

>  <SCORE.INTRA.DIHEDRAL>
-3.67271

>  <SCORE.INTRA.DIHEDRAL.0>
4.88619

>  <SCORE.INTRA.POLAR>
0

>  <SCORE.INTRA.POLAR.0>
0

>  <SCORE.INTRA.REPUL>
0

>  <SCORE.INTRA.REPUL.0>
0

>  <SCORE.INTRA.SOLV>
-0.46328

>  <SCORE.INTRA.SOLV.lig_0>
-73.8187

>  <SCORE.INTRA.VDW>
0.53848

>  <SCORE.INTRA.VDW.0>
-1.32335

>  <SCORE.INTRA.norm>
-0.0695235

>  <SCORE.RESTR>
0

>  <SCORE.RESTR.CAVITY>
0

>  <SCORE.RESTR.norm>
0

>  <SCORE.SYSTEM>
0

>  <SCORE.SYSTEM.CONST>
0

>  <SCORE.SYSTEM.DIHEDRAL>
0

>  <SCORE.SYSTEM.SOLV>
0

>  <SCORE.SYSTEM.norm>
0

>  <SCORE.heavy>
22

>  <SCORE.norm>
-0.631389

>  <RMSD>
5.273

$$$$
2fcx_lig
 OpenBabel11021811433D
libRbt.so/2013.1/901 2013/11/27
 22 23  0  0  0  0  0  0  0  0999 V2000
   22.9513    9.0850   12.8661 N   0  0  0  0  0  0  0  0  0  0  0  0
   25.5372   10.1343   16.9018 N   0  0  0  0  0  0  0  0  0  0  0  0
   28.9072   12.1236   14.5517 N   0  0  0  0  0  0  0  0  0  0  0  0
   27.5208    7.4447   13.3646 O   0  0  0  0  0  0  0  0  0  0  0  0
   26.3040    7.7209   14.0637 C   0  0  2  0  0  0  0  0  0  0  0  0
   29.2414    6.3368   17.4560 N   0  0  0  0  0  0  0  0  0  0  0  0
   24.9702    7.1495   12.1525 O   0  0  0  0  0  0  0  0  0  0  0  0
   25.2360    8.2073   13.0812 C   0  0  1  0  0  0  0  0  0  0  0  0
   27.4358    8.1636   16.1741 O   0  0  0  0  0  0  0  0  0  0  0  0
   23.9473    8.5754   13.8201 C   0  0  1  0  0  0  0  0  0  0  0  0
   29.2375    9.3682   15.2826 O   0  0  0  0  0  0  0  0  0  0  0  0
   24.2218    9.6471   14.8804 C   0  0  0  0  0  0  0  0  0  0  0  0
   30.0051   11.0114   18.5063 O   0  0  0  0  0  0  0  0  0  0  0  0
   25.2575    9.1187   15.8769 C   0  0  1  0  0  0  0  0  0  0  0  0
   30.5276    8.2935   19.1147 O   0  0  0  0  0  0  0  0  0  0  0  0
   26.5678    8.7366   15.1820 C   0  0  2  0  0  0  0  0  0  0  0  0
   28.8088    8.0778   15.7555 C   0  0  1  0  0  0  0  0  0  0  0  0
   29.2156   10.3998   16.2898 C   0  0  2  0  0  0  0  0  0  0  0  0
   29.7190   11.7239   15.7109 C   0  0  0  0  0  0  0  0  0  0  0  0
   30.1064   10.0229   17.4767 C   0  0  2  0  0  0  0  0  0  0  0  0
   29.6583    8.6763   18.0473 C   0  0  1  0  0  0  0  0  0  0  0  0
   29.6907    7.6321   16.9282 C   0  0  1  0  0  0  0  0  0  0  0  0
  5  4  1  6  0  0  0
  5  8  1  0  0  0  0
  5 16  1  0  0  0  0
  8  7  1  6  0  0  0
  8 10  1  0  0  0  0
 10  1  1  6  0  0  0
 10 12  1  0  0  0  0
 11 18  1  0  0  0  0
 12 14  1  0  0  0  0
 14  2  1  1  0  0  0
 14 16  1  0  0  0  0
 16  9  1  1  0  0  0
 17  9  1  1  0  0  0
 17 11  1  0  0  0  0
 17 22  1  0  0  0  0
 18 19  1  6  0  0  0
 18 20  1  0  0  0  0
 19  3  1  0  0  0  0
 20 13  1  1  0  0  0
 20 21  1  0  0  0  0
 21 15  1  1  0  0  0
 21 22  1  0  0  0  0
 22  6  1  1  0  0  0
M  END
>  <CHROM.1>
74.87297383,51.90849364,57.52514754,27.53380842,8.97689827,15.61747141,2.98335302
0.65704817,-3.12922052

>  <Name>
2fcx_lig

>  <RI>
0

>  <Rbt.Current_Directory>
/home/itssahil/PROJECTS/Mol_Feturizer/New_Systems/rnas/2fcx

>  <Rbt.Executable>
rbdock ($Id: //depot/dev/client3/rdock/2013.1/src/exe/rbdock.cxx#4 $)

>  <Rbt.Library>
libRbt.so (2013.1, Build901 2013/11/27)

>  <Rbt.Parameter_File>
/export/apps/rDock/src/rDock_2013.1_src/data/scripts/dock_solv.prm

>  <Rbt.Receptor>
prm/pocket_docking_6.prm

>  <SCORE>
-13.7176

>  <SCORE.INTER>
-11.981

>  <SCORE.INTER.CONST>
1

>  <SCORE.INTER.POLAR>
-0.640482

>  <SCORE.INTER.ROT>
3

>  <SCORE.INTER.SOLV>
14.9023

>  <SCORE.INTER.VDW>
-16.4198

>  <SCORE.INTER.norm>
-0.54459

>  <SCORE.INTRA>
-1.73666

>  <SCORE.INTRA.DIHEDRAL>
-3.49845

>  <SCORE.INTRA.DIHEDRAL.0>
4.88619

>  <SCORE.INTRA.POLAR>
0

>  <SCORE.INTRA.POLAR.0>
0

>  <SCORE.INTRA.REPUL>
0

>  <SCORE.INTRA.REPUL.0>
0

>  <SCORE.INTRA.SOLV>
-0.364211

>  <SCORE.INTRA.SOLV.lig_0>
-73.8187

>  <SCORE.INTRA.VDW>
0.194675

>  <SCORE.INTRA.VDW.0>
-1.32335

>  <SCORE.INTRA.norm>
-0.0789389

>  <SCORE.RESTR>
0

>  <SCORE.RESTR.CAVITY>
0

>  <SCORE.RESTR.norm>
0

>  <SCORE.SYSTEM>
0

>  <SCORE.SYSTEM.CONST>
0

>  <SCORE.SYSTEM.DIHEDRAL>
0

>  <SCORE.SYSTEM.SOLV>
0

>  <SCORE.SYSTEM.norm>
0

>  <SCORE.heavy>
22

>  <SCORE.norm>
-0.623529

>  <RMSD>
5.308

$$$$
2fcx_lig
 OpenBabel11021811433D
libRbt.so/2013.1/901 2013/11/27
 22 23  0  0  0  0  0  0  0  0999 V2000
   27.1696    8.5578    7.5108 N   0  0  0  0  0  0  0  0  0  0  0  0
   26.1313    7.8240   12.2498 N   0  0  0  0  0  0  0  0  0  0  0  0
   30.4763   13.5989   12.2383 N   0  0  0  0  0  0  0  0  0  0  0  0
   28.3366   11.9274   10.8429 O   0  0  0  0  0  0  0  0  0  0  0  0
   28.2432   10.5215   10.5973 C   0  0  2  0  0  0  0  0  0  0  0  0
   28.6125    7.8402   14.6777 N   0  0  0  0  0  0  0  0  0  0  0  0
   28.8206   10.7954    8.2843 O   0  0  0  0  0  0  0  0  0  0  0  0
   27.8078   10.2716    9.1514 C   0  0  1  0  0  0  0  0  0  0  0  0
   27.8292    9.9836   12.9362 O   0  0  0  0  0  0  0  0  0  0  0  0
   27.6339    8.7739    8.8890 C   0  0  1  0  0  0  0  0  0  0  0  0
   30.0476   10.7267   12.8010 O   0  0  0  0  0  0  0  0  0  0  0  0
   26.6155    8.1712    9.8626 C   0  0  0  0  0  0  0  0  0  0  0  0
   29.9606   12.2561   16.1677 O   0  0  0  0  0  0  0  0  0  0  0  0
   27.0971    8.3930   11.2992 C   0  0  1  0  0  0  0  0  0  0  0  0
   29.6217    9.5104   16.7815 O   0  0  0  0  0  0  0  0  0  0  0  0
   27.2856    9.8809   11.6095 C   0  0  2  0  0  0  0  0  0  0  0  0
   29.2065    9.5801   13.0254 C   0  0  1  0  0  0  0  0  0  0  0  0
   29.8966   11.7678   13.7870 C   0  0  2  0  0  0  0  0  0  0  0  0
   30.8507   12.9272   13.4917 C   0  0  0  0  0  0  0  0  0  0  0  0
   30.2012   11.2384   15.1910 C   0  0  2  0  0  0  0  0  0  0  0  0
   29.2954   10.0445   15.4970 C   0  0  1  0  0  0  0  0  0  0  0  0
   29.4930    8.9852   14.4095 C   0  0  1  0  0  0  0  0  0  0  0  0
  5  4  1  1  0  0  0
  5  8  1  0  0  0  0
  5 16  1  0  0  0  0
  8  7  1  6  0  0  0
  8 10  1  0  0  0  0
 10  1  1  6  0  0  0
 10 12  1  0  0  0  0
 11 18  1  0  0  0  0
 12 14  1  0  0  0  0
 14  2  1  1  0  0  0
 14 16  1  0  0  0  0
 16  9  1  1  0  0  0
 17  9  1  1  0  0  0
 17 11  1  0  0  0  0
 17 22  1  0  0  0  0
 18 19  1  6  0  0  0
 18 20  1  0  0  0  0
 19  3  1  0  0  0  0
 20 13  1  1  0  0  0
 20 21  1  0  0  0  0
 21 15  1  1  0  0  0
 21 22  1  0  0  0  0
 22  6  1  1  0  0  0
M  END
>  <CHROM.1>
-47.92607868,90.23895968,66.51636087,28.68355833,10.19662658,12.35588521
2.31358831,-0.99979831,-1.18914838

>  <Name>
2fcx_lig

>  <RI>
1.15031e+07

>  <Rbt.Current_Directory>
/home/itssahil/PROJECTS/Mol_Feturizer/New_Systems/rnas/2fcx

>  <Rbt.Executable>
rbdock ($Id: //depot/dev/client3/rdock/2013.1/src/exe/rbdock.cxx#4 $)

>  <Rbt.Library>
libRbt.so (2013.1, Build901 2013/11/27)

>  <Rbt.Parameter_File>
/export/apps/rDock/src/rDock_2013.1_src/data/scripts/dock_solv.prm

>  <Rbt.Receptor>
prm/pocket_docking_8.prm

>  <SCORE>
-10.4212

>  <SCORE.INTER>
-12.2431

>  <SCORE.INTER.CONST>
1

>  <SCORE.INTER.POLAR>
-1.68819

>  <SCORE.INTER.ROT>
3

>  <SCORE.INTER.SOLV>
10.4272

>  <SCORE.INTER.VDW>
-11.6105

>  <SCORE.INTER.norm>
-0.556503

>  <SCORE.INTRA>
1.82189

>  <SCORE.INTRA.DIHEDRAL>
-0.389902

>  <SCORE.INTRA.DIHEDRAL.0>
4.88619

>  <SCORE.INTRA.POLAR>
0

>  <SCORE.INTRA.POLAR.0>
0

>  <SCORE.INTRA.REPUL>
0

>  <SCORE.INTRA.REPUL.0>
0

>  <SCORE.INTRA.SOLV>
2.41396

>  <SCORE.INTRA.SOLV.lig_0>
-73.8187

>  <SCORE.INTRA.VDW>
0.809856

>  <SCORE.INTRA.VDW.0>
-1.32335

>  <SCORE.INTRA.norm>
0.082813

>  <SCORE.RESTR>
0

>  <SCORE.RESTR.CAVITY>
0

>  <SCORE.RESTR.norm>
0

>  <SCORE.SYSTEM>
0

>  <SCORE.SYSTEM.CONST>
0

>  <SCORE.SYSTEM.DIHEDRAL>
0

>  <SCORE.SYSTEM.SOLV>
0

>  <SCORE.SYSTEM.norm>
0

>  <SCORE.heavy>
22

>  <SCORE.norm>
-0.47369

>  <RMSD>
5.332

$$$$
2fcx_lig
 OpenBabel11021811433D
libRbt.so/2013.1/901 2013/11/27
 22 23  0  0  0  0  0  0  0  0999 V2000
   30.9422   11.3102   14.6777 N   0  0  0  0  0  0  0  0  0  0  0  0
   27.8905    7.5422   13.9261 N   0  0  0  0  0  0  0  0  0  0  0  0
   29.0410    4.6863   10.3810 N   0  0  0  0  0  0  0  0  0  0  0  0
   29.0386   10.5213   10.2536 O   0  0  0  0  0  0  0  0  0  0  0  0
   28.7738   10.4650   11.6580 C   0  0  2  0  0  0  0  0  0  0  0  0
   25.1862    9.9049    9.7438 N   0  0  0  0  0  0  0  0  0  0  0  0
   30.1912   12.3518   12.0928 O   0  0  0  0  0  0  0  0  0  0  0  0
   29.9863   10.9770   12.4391 C   0  0  1  0  0  0  0  0  0  0  0  0
   27.1467    8.6665   11.4361 O   0  0  0  0  0  0  0  0  0  0  0  0
   29.7492   10.8589   13.9464 C   0  0  1  0  0  0  0  0  0  0  0  0
   27.8311    7.2755    9.6787 O   0  0  0  0  0  0  0  0  0  0  0  0
   29.4430    9.4075   14.3313 C   0  0  0  0  0  0  0  0  0  0  0  0
   24.8791    5.0696    9.9972 O   0  0  0  0  0  0  0  0  0  0  0  0
   28.1997    8.9349   13.5726 C   0  0  1  0  0  0  0  0  0  0  0  0
   23.6788    7.5184    9.2274 O   0  0  0  0  0  0  0  0  0  0  0  0
   28.3901    9.0346   12.0562 C   0  0  2  0  0  0  0  0  0  0  0  0
   27.2325    8.5431   10.0060 C   0  0  1  0  0  0  0  0  0  0  0  0
   27.0618    6.1343   10.1088 C   0  0  2  0  0  0  0  0  0  0  0  0
   27.7520    4.8346    9.6890 C   0  0  0  0  0  0  0  0  0  0  0  0
   25.6605    6.1569    9.4924 C   0  0  2  0  0  0  0  0  0  0  0  0
   24.9620    7.4688    9.8538 C   0  0  1  0  0  0  0  0  0  0  0  0
   25.8338    8.6363    9.3839 C   0  0  1  0  0  0  0  0  0  0  0  0
  5  4  1  6  0  0  0
  5  8  1  0  0  0  0
  5 16  1  0  0  0  0
  8  7  1  1  0  0  0
  8 10  1  0  0  0  0
 10  1  1  1  0  0  0
 10 12  1  0  0  0  0
 11 18  1  0  0  0  0
 12 14  1  0  0  0  0
 14  2  1  6  0  0  0
 14 16  1  0  0  0  0
 16  9  1  6  0  0  0
 17  9  1  1  0  0  0
 17 11  1  0  0  0  0
 17 22  1  0  0  0  0
 18 19  1  6  0  0  0
 18 20  1  0  0  0  0
 19  3  1  0  0  0  0
 20 13  1  1  0  0  0
 20 21  1  0  0  0  0
 21 15  1  6  0  0  0
 21 22  1  0  0  0  0
 22  6  1  1  0  0  0
M  END
>  <CHROM.1>
67.44651788,78.92203523,65.00158854,27.65778078,8.46371596,11.23951875,-0.69592995
0.71227092,-3.12567213

>  <Name>
2fcx_lig

>  <RI>
1.15031e+07

>  <Rbt.Current_Directory>
/home/itssahil/PROJECTS/Mol_Feturizer/New_Systems/rnas/2fcx

>  <Rbt.Executable>
rbdock ($Id: //depot/dev/client3/rdock/2013.1/src/exe/rbdock.cxx#4 $)

>  <Rbt.Library>
libRbt.so (2013.1, Build901 2013/11/27)

>  <Rbt.Parameter_File>
/export/apps/rDock/src/rDock_2013.1_src/data/scripts/dock_solv.prm

>  <Rbt.Receptor>
prm/pocket_docking_8.prm

>  <SCORE>
-16.7825

>  <SCORE.INTER>
-15.6197

>  <SCORE.INTER.CONST>
1

>  <SCORE.INTER.POLAR>
-3.34864

>  <SCORE.INTER.ROT>
3

>  <SCORE.INTER.SOLV>
20.1564

>  <SCORE.INTER.VDW>
-11.5698

>  <SCORE.INTER.norm>
-0.709985

>  <SCORE.INTRA>
-1.16285

>  <SCORE.INTRA.DIHEDRAL>
-2.89386

>  <SCORE.INTRA.DIHEDRAL.0>
4.88619

>  <SCORE.INTRA.POLAR>
0

>  <SCORE.INTRA.POLAR.0>
0

>  <SCORE.INTRA.REPUL>
0

>  <SCORE.INTRA.REPUL.0>
0

>  <SCORE.INTRA.SOLV>
-0.619917

>  <SCORE.INTRA.SOLV.lig_0>
-73.8187

>  <SCORE.INTRA.VDW>
0.594034

>  <SCORE.INTRA.VDW.0>
-1.32335

>  <SCORE.INTRA.norm>
-0.0528569

>  <SCORE.RESTR>
0

>  <SCORE.RESTR.CAVITY>
0

>  <SCORE.RESTR.norm>
0

>  <SCORE.SYSTEM>
0

>  <SCORE.SYSTEM.CONST>
0

>  <SCORE.SYSTEM.DIHEDRAL>
0

>  <SCORE.SYSTEM.SOLV>
0

>  <SCORE.SYSTEM.norm>
0

>  <SCORE.heavy>
22

>  <SCORE.norm>
-0.762842

>  <RMSD>
5.364

$$$$
2fcx_lig
 OpenBabel11021811433D
libRbt.so/2013.1/901 2013/11/27
 22 23  0  0  0  0  0  0  0  0999 V2000
   30.5372   17.0062   18.1401 N   0  0  0  0  0  0  0  0  0  0  0  0
   30.0861   13.7853   14.4662 N   0  0  0  0  0  0  0  0  0  0  0  0
   27.1316   11.1856   11.9239 N   0  0  0  0  0  0  0  0  0  0  0  0
   28.6471   12.5812   18.9562 O   0  0  0  0  0  0  0  0  0  0  0  0
   29.6318   13.3034   18.2117 C   0  0  2  0  0  0  0  0  0  0  0  0
   29.9434    9.1031   17.4607 N   0  0  0  0  0  0  0  0  0  0  0  0
   29.9617   14.8726   19.9969 O   0  0  0  0  0  0  0  0  0  0  0  0
   29.6093   14.7806   18.6115 C   0  0  1  0  0  0  0  0  0  0  0  0
   29.6048   11.7298   16.3532 O   0  0  0  0  0  0  0  0  0  0  0  0
   30.6081   15.5837   17.7751 C   0  0  1  0  0  0  0  0  0  0  0  0
   27.4420   11.1829   15.6357 O   0  0  0  0  0  0  0  0  0  0  0  0
   30.3035   15.4326   16.2809 C   0  0  0  0  0  0  0  0  0  0  0  0
   28.6704    9.1789   12.7797 O   0  0  0  0  0  0  0  0  0  0  0  0
   30.3784   13.9521   15.8969 C   0  0  1  0  0  0  0  0  0  0  0  0
   29.6460    7.6871   14.9827 O   0  0  0  0  0  0  0  0  0  0  0  0
   29.3938   13.1062   16.7096 C   0  0  2  0  0  0  0  0  0  0  0  0
   28.4651   10.8900   16.6052 C   0  0  1  0  0  0  0  0  0  0  0  0
   27.8241   10.8992   14.2746 C   0  0  2  0  0  0  0  0  0  0  0  0
   26.6684   11.2049   13.3194 C   0  0  0  0  0  0  0  0  0  0  0  0
   28.2080    9.4260   14.1111 C   0  0  2  0  0  0  0  0  0  0  0  0
   29.3300    9.0764   15.0901 C   0  0  1  0  0  0  0  0  0  0  0  0
   28.8671    9.4131   16.5100 C   0  0  1  0  0  0  0  0  0  0  0  0
  5  4  1  1  0  0  0
  5  8  1  0  0  0  0
  5 16  1  0  0  0  0
  8  7  1  1  0  0  0
  8 10  1  0  0  0  0
 10  1  1  1  0  0  0
 10 12  1  0  0  0  0
 11 18  1  0  0  0  0
 12 14  1  0  0  0  0
 14  2  1  6  0  0  0
 14 16  1  0  0  0  0
 16  9  1  6  0  0  0
 17  9  1  6  0  0  0
 17 11  1  0  0  0  0
 17 22  1  0  0  0  0
 18 19  1  6  0  0  0
 18 20  1  0  0  0  0
 19  3  1  0  0  0  0
 20 13  1  6  0  0  0
 20 21  1  0  0  0  0
 21 15  1  1  0  0  0
 21 22  1  0  0  0  0
 22  6  1  1  0  0  0
M  END
>  <CHROM.1>
82.62100705,72.35969144,168.33246101,29.12591878,12.03050744,16.09954760
0.59975313,-1.27176775,-0.31518262

>  <Name>
2fcx_lig

>  <RI>
1.15031e+07

>  <Rbt.Current_Directory>
/home/itssahil/PROJECTS/Mol_Feturizer/New_Systems/rnas/2fcx

>  <Rbt.Executable>
rbdock ($Id: //depot/dev/client3/rdock/2013.1/src/exe/rbdock.cxx#4 $)

>  <Rbt.Library>
libRbt.so (2013.1, Build901 2013/11/27)

>  <Rbt.Parameter_File>
/export/apps/rDock/src/rDock_2013.1_src/data/scripts/dock_solv.prm

>  <Rbt.Receptor>
prm/pocket_docking_8.prm

>  <SCORE>
-13.548

>  <SCORE.INTER>
-13.2948

>  <SCORE.INTER.CONST>
1

>  <SCORE.INTER.POLAR>
-1.2428

>  <SCORE.INTER.ROT>
3

>  <SCORE.INTER.SOLV>
14.0068

>  <SCORE.INTER.VDW>
-14.9895

>  <SCORE.INTER.norm>
-0.604308

>  <SCORE.INTRA>
-0.25318

>  <SCORE.INTRA.DIHEDRAL>
-1.42445

>  <SCORE.INTRA.DIHEDRAL.0>
4.88619

>  <SCORE.INTRA.POLAR>
0

>  <SCORE.INTRA.POLAR.0>
0

>  <SCORE.INTRA.REPUL>
0

>  <SCORE.INTRA.REPUL.0>
0

>  <SCORE.INTRA.SOLV>
1.06799

>  <SCORE.INTRA.SOLV.lig_0>
-73.8187

>  <SCORE.INTRA.VDW>
-0.0749538

>  <SCORE.INTRA.VDW.0>
-1.32335

>  <SCORE.INTRA.norm>
-0.0115082

>  <SCORE.RESTR>
0

>  <SCORE.RESTR.CAVITY>
0

>  <SCORE.RESTR.norm>
0

>  <SCORE.SYSTEM>
0

>  <SCORE.SYSTEM.CONST>
0

>  <SCORE.SYSTEM.DIHEDRAL>
0

>  <SCORE.SYSTEM.SOLV>
0

>  <SCORE.SYSTEM.norm>
0

>  <SCORE.heavy>
22

>  <SCORE.norm>
-0.615816

>  <RMSD>
5.387

$$$$
2fcx_lig
 OpenBabel11021811433D
libRbt.so/2013.1/901 2013/11/27
 22 23  0  0  0  0  0  0  0  0999 V2000
   30.9033    7.6638   19.9220 N   0  0  0  0  0  0  0  0  0  0  0  0
   28.8870   11.1778   17.1541 N   0  0  0  0  0  0  0  0  0  0  0  0
   23.8494   10.2683   15.2101 N   0  0  0  0  0  0  0  0  0  0  0  0
   29.0407    6.5894   15.5407 O   0  0  0  0  0  0  0  0  0  0  0  0
   29.7559    7.5777   16.2872 C   0  0  2  0  0  0  0  0  0  0  0  0
   29.5364    9.5387   12.1285 N   0  0  0  0  0  0  0  0  0  0  0  0
   30.8389    5.9100   17.6304 O   0  0  0  0  0  0  0  0  0  0  0  0
   30.0094    7.0751   17.7105 C   0  0  1  0  0  0  0  0  0  0  0  0
   28.9281    9.4238   14.9316 O   0  0  0  0  0  0  0  0  0  0  0  0
   30.7121    8.1472   18.5466 C   0  0  1  0  0  0  0  0  0  0  0  0
   26.9294    8.2852   14.4834 O   0  0  0  0  0  0  0  0  0  0  0  0
   29.8829    9.4355   18.5775 C   0  0  0  0  0  0  0  0  0  0  0  0
   25.1988   11.3460   13.3354 O   0  0  0  0  0  0  0  0  0  0  0  0
   29.6835    9.9427   17.1465 C   0  0  1  0  0  0  0  0  0  0  0  0
   27.2309   11.0740   11.3792 O   0  0  0  0  0  0  0  0  0  0  0  0
   28.9817    8.9014   16.2696 C   0  0  2  0  0  0  0  0  0  0  0  0
   28.2592    8.5542   14.0019 C   0  0  1  0  0  0  0  0  0  0  0  0
   26.0902    9.4541   14.5750 C   0  0  2  0  0  0  0  0  0  0  0  0
   24.6899    9.0711   15.0588 C   0  0  0  0  0  0  0  0  0  0  0  0
   25.9588   10.1398   13.2123 C   0  0  2  0  0  0  0  0  0  0  0  0
   27.3484   10.4911   12.6784 C   0  0  1  0  0  0  0  0  0  0  0  0
   28.1903    9.2138   12.6191 C   0  0  1  0  0  0  0  0  0  0  0  0
  5  4  1  6  0  0  0
  5  8  1  0  0  0  0
  5 16  1  0  0  0  0
  8  7  1  6  0  0  0
  8 10  1  0  0  0  0
 10  1  1  1  0  0  0
 10 12  1  0  0  0  0
 11 18  1  0  0  0  0
 12 14  1  0  0  0  0
 14  2  1  1  0  0  0
 14 16  1  0  0  0  0
 16  9  1  6  0  0  0
 17  9  1  1  0  0  0
 17 11  1  0  0  0  0
 17 22  1  0  0  0  0
 18 19  1  6  0  0  0
 18 20  1  0  0  0  0
 19  3  1  0  0  0  0
 20 13  1  1  0  0  0
 20 21  1  0  0  0  0
 21 15  1  6  0  0  0
 21 22  1  0  0  0  0
 22  6  1  1  0  0  0
M  END
>  <CHROM.1>
61.05031477,56.74666478,177.49966177,28.20653466,9.05063746,15.35235360,0.84021270
-0.46330071,1.66657322

>  <Name>
2fcx_lig

>  <RI>
1.55453e+07

>  <Rbt.Current_Directory>
/home/itssahil/PROJECTS/Mol_Feturizer/New_Systems/rnas/2fcx

>  <Rbt.Executable>
rbdock ($Id: //depot/dev/client3/rdock/2013.1/src/exe/rbdock.cxx#4 $)

>  <Rbt.Library>
libRbt.so (2013.1, Build901 2013/11/27)

>  <Rbt.Parameter_File>
/export/apps/rDock/src/rDock_2013.1_src/data/scripts/dock_solv.prm

>  <Rbt.Receptor>
prm/pocket_docking_4.prm

>  <SCORE>
-8.53511

>  <SCORE.INTER>
-8.20797

>  <SCORE.INTER.CONST>
1

>  <SCORE.INTER.POLAR>
-0.975668

>  <SCORE.INTER.ROT>
3

>  <SCORE.INTER.SOLV>
14.7357

>  <SCORE.INTER.VDW>
-12.7317

>  <SCORE.INTER.norm>
-0.37309

>  <SCORE.INTRA>
-0.327146

>  <SCORE.INTRA.DIHEDRAL>
-4.796

>  <SCORE.INTRA.DIHEDRAL.0>
4.88619

>  <SCORE.INTRA.POLAR>
0

>  <SCORE.INTRA.POLAR.0>
0

>  <SCORE.INTRA.REPUL>
0

>  <SCORE.INTRA.REPUL.0>
0

>  <SCORE.INTRA.SOLV>
0.195988

>  <SCORE.INTRA.SOLV.lig_0>
-73.8187

>  <SCORE.INTRA.VDW>
1.97286

>  <SCORE.INTRA.VDW.0>
-1.32335

>  <SCORE.INTRA.norm>
-0.0148703

>  <SCORE.RESTR>
0

>  <SCORE.RESTR.CAVITY>
0

>  <SCORE.RESTR.norm>
0

>  <SCORE.SYSTEM>
0

>  <SCORE.SYSTEM.CONST>
0

>  <SCORE.SYSTEM.DIHEDRAL>
0

>  <SCORE.SYSTEM.SOLV>
0

>  <SCORE.SYSTEM.norm>
0

>  <SCORE.heavy>
22

>  <SCORE.norm>
-0.38796

>  <RMSD>
5.430

$$$$
2fcx_lig
 OpenBabel11021811433D
libRbt.so/2013.1/901 2013/11/27
 22 23  0  0  0  0  0  0  0  0999 V2000
   30.8905   11.5241   14.3668 N   0  0  0  0  0  0  0  0  0  0  0  0
   27.7235    7.8213   13.7887 N   0  0  0  0  0  0  0  0  0  0  0  0
   29.2862    5.0819   10.1932 N   0  0  0  0  0  0  0  0  0  0  0  0
   28.9501   10.5981    9.9854 O   0  0  0  0  0  0  0  0  0  0  0  0
   28.6881   10.6123   11.3913 C   0  0  2  0  0  0  0  0  0  0  0  0
   24.8794    9.8591    9.6060 N   0  0  0  0  0  0  0  0  0  0  0  0
   30.1635   12.4724   11.7394 O   0  0  0  0  0  0  0  0  0  0  0  0
   29.9180   11.1212   12.1468 C   0  0  1  0  0  0  0  0  0  0  0  0
   27.0064    8.8562   11.2524 O   0  0  0  0  0  0  0  0  0  0  0  0
   29.6821   11.0774   13.6583 C   0  0  1  0  0  0  0  0  0  0  0  0
   27.7952    7.5360    9.4842 O   0  0  0  0  0  0  0  0  0  0  0  0
   29.3331    9.6545   14.1079 C   0  0  0  0  0  0  0  0  0  0  0  0
   25.1130    5.0214    9.8889 O   0  0  0  0  0  0  0  0  0  0  0  0
   28.0737    9.1869   13.3731 C   0  0  1  0  0  0  0  0  0  0  0  0
   23.6313    7.3177    9.1395 O   0  0  0  0  0  0  0  0  0  0  0  0
   28.2623    9.2133   11.8534 C   0  0  2  0  0  0  0  0  0  0  0  0
   27.0692    8.7325    9.8211 C   0  0  1  0  0  0  0  0  0  0  0  0
   27.1674    6.3203    9.9391 C   0  0  2  0  0  0  0  0  0  0  0  0
   27.9856    5.1013    9.5074 C   0  0  0  0  0  0  0  0  0  0  0  0
   25.7569    6.1842    9.3591 C   0  0  2  0  0  0  0  0  0  0  0  0
   24.9276    7.4140    9.7326 C   0  0  1  0  0  0  0  0  0  0  0  0
   25.6535    8.6668    9.2351 C   0  0  1  0  0  0  0  0  0  0  0  0
  5  4  1  6  0  0  0
  5  8  1  0  0  0  0
  5 16  1  0  0  0  0
  8  7  1  6  0  0  0
  8 10  1  0  0  0  0
 10  1  1  1  0  0  0
 10 12  1  0  0  0  0
 11 18  1  0  0  0  0
 12 14  1  0  0  0  0
 14  2  1  1  0  0  0
 14 16  1  0  0  0  0
 16  9  1  6  0  0  0
 17  9  1  1  0  0  0
 17 11  1  0  0  0  0
 17 22  1  0  0  0  0
 18 19  1  6  0  0  0
 18 20  1  0  0  0  0
 19  3  1  0  0  0  0
 20 13  1  1  0  0  0
 20 21  1  0  0  0  0
 21 15  1  6  0  0  0
 21 22  1  0  0  0  0
 22  6  1  1  0  0  0
M  END
>  <CHROM.1>
64.50116470,72.07730485,66.48203918,27.61796318,8.60089016,11.04037868,-0.75262857
0.65821356,-3.06642600

>  <Name>
2fcx_lig

>  <RI>
1.15031e+07

>  <Rbt.Current_Directory>
/home/itssahil/PROJECTS/Mol_Feturizer/New_Systems/rnas/2fcx

>  <Rbt.Executable>
rbdock ($Id: //depot/dev/client3/rdock/2013.1/src/exe/rbdock.cxx#4 $)

>  <Rbt.Library>
libRbt.so (2013.1, Build901 2013/11/27)

>  <Rbt.Parameter_File>
/export/apps/rDock/src/rDock_2013.1_src/data/scripts/dock_solv.prm

>  <Rbt.Receptor>
prm/pocket_docking_8.prm

>  <SCORE>
-17.2168

>  <SCORE.INTER>
-15.6747

>  <SCORE.INTER.CONST>
1

>  <SCORE.INTER.POLAR>
-3.31009

>  <SCORE.INTER.ROT>
3

>  <SCORE.INTER.SOLV>
18.6246

>  <SCORE.INTER.VDW>
-11.2244

>  <SCORE.INTER.norm>
-0.712488

>  <SCORE.INTRA>
-1.54203

>  <SCORE.INTRA.DIHEDRAL>
-3.93533

>  <SCORE.INTRA.DIHEDRAL.0>
4.88619

>  <SCORE.INTRA.POLAR>
0

>  <SCORE.INTRA.POLAR.0>
0

>  <SCORE.INTRA.REPUL>
0

>  <SCORE.INTRA.REPUL.0>
0

>  <SCORE.INTRA.SOLV>
-0.910144

>  <SCORE.INTRA.SOLV.lig_0>
-73.8187

>  <SCORE.INTRA.VDW>
0.880705

>  <SCORE.INTRA.VDW.0>
-1.32335

>  <SCORE.INTRA.norm>
-0.0700923

>  <SCORE.RESTR>
0

>  <SCORE.RESTR.CAVITY>
0

>  <SCORE.RESTR.norm>
0

>  <SCORE.SYSTEM>
0

>  <SCORE.SYSTEM.CONST>
0

>  <SCORE.SYSTEM.DIHEDRAL>
0

>  <SCORE.SYSTEM.SOLV>
0

>  <SCORE.SYSTEM.norm>
0

>  <SCORE.heavy>
22

>  <SCORE.norm>
-0.782581

>  <RMSD>
5.436

$$$$
2fcx_lig
 OpenBabel11021811433D
libRbt.so/2013.1/901 2013/11/27
 22 23  0  0  0  0  0  0  0  0999 V2000
   30.5788   17.0092   18.1886 N   0  0  0  0  0  0  0  0  0  0  0  0
   29.8980   14.0532   14.3320 N   0  0  0  0  0  0  0  0  0  0  0  0
   26.3175   10.8192   12.2741 N   0  0  0  0  0  0  0  0  0  0  0  0
   28.6766   12.5562   18.7982 O   0  0  0  0  0  0  0  0  0  0  0  0
   29.6309   13.3188   18.0544 C   0  0  2  0  0  0  0  0  0  0  0  0
   29.2105    9.2854   17.2996 N   0  0  0  0  0  0  0  0  0  0  0  0
   30.0722   14.7583   19.9229 O   0  0  0  0  0  0  0  0  0  0  0  0
   29.6479   14.7651   18.5547 C   0  0  1  0  0  0  0  0  0  0  0  0
   29.4882   11.8771   16.0968 O   0  0  0  0  0  0  0  0  0  0  0  0
   30.6126   15.6146   17.7241 C   0  0  1  0  0  0  0  0  0  0  0  0
   27.6287   11.4761   14.7281 O   0  0  0  0  0  0  0  0  0  0  0  0
   30.2296   15.5695   16.2410 C   0  0  0  0  0  0  0  0  0  0  0  0
   29.5174    9.2490   12.4578 O   0  0  0  0  0  0  0  0  0  0  0  0
   30.2657   14.1184   15.7535 C   0  0  1  0  0  0  0  0  0  0  0  0
   29.5938    7.7857   14.8833 O   0  0  0  0  0  0  0  0  0  0  0  0
   29.3134   13.2276   16.5568 C   0  0  2  0  0  0  0  0  0  0  0  0
   28.2556   11.1457   15.9812 C   0  0  1  0  0  0  0  0  0  0  0  0
   28.3990   11.0997   13.5688 C   0  0  2  0  0  0  0  0  0  0  0  0
   27.6437   11.4543   12.2860 C   0  0  0  0  0  0  0  0  0  0  0  0
   28.6776    9.5942   13.5637 C   0  0  2  0  0  0  0  0  0  0  0  0
   29.3895    9.1997   14.8588 C   0  0  1  0  0  0  0  0  0  0  0  0
   28.5290    9.6381   16.0467 C   0  0  1  0  0  0  0  0  0  0  0  0
  5  4  1  1  0  0  0
  5  8  1  0  0  0  0
  5 16  1  0  0  0  0
  8  7  1  1  0  0  0
  8 10  1  0  0  0  0
 10  1  1  1  0  0  0
 10 12  1  0  0  0  0
 11 18  1  0  0  0  0
 12 14  1  0  0  0  0
 14  2  1  6  0  0  0
 14 16  1  0  0  0  0
 16  9  1  6  0  0  0
 17  9  1  6  0  0  0
 17 11  1  0  0  0  0
 17 22  1  0  0  0  0
 18 19  1  6  0  0  0
 18 20  1  0  0  0  0
 19  3  1  0  0  0  0
 20 13  1  6  0  0  0
 20 21  1  0  0  0  0
 21 15  1  6  0  0  0
 21 22  1  0  0  0  0
 22  6  1  1  0  0  0
M  END
>  <CHROM.1>
99.97014968,82.01306066,-56.37174954,29.15904109,12.13031108,15.83051975
0.38629487,-1.32764317,-0.48725052

>  <Name>
2fcx_lig

>  <RI>
4.08374e+07

>  <Rbt.Current_Directory>
/home/itssahil/PROJECTS/Mol_Feturizer/New_Systems/rnas/2fcx

>  <Rbt.Executable>
rbdock ($Id: //depot/dev/client3/rdock/2013.1/src/exe/rbdock.cxx#4 $)

>  <Rbt.Library>
libRbt.so (2013.1, Build901 2013/11/27)

>  <Rbt.Parameter_File>
/export/apps/rDock/src/rDock_2013.1_src/data/scripts/dock_solv.prm

>  <Rbt.Receptor>
prm/pocket_docking_7.prm

>  <SCORE>
-12.601

>  <SCORE.INTER>
-14.4516

>  <SCORE.INTER.CONST>
1

>  <SCORE.INTER.POLAR>
-1.67218

>  <SCORE.INTER.ROT>
3

>  <SCORE.INTER.SOLV>
12.8848

>  <SCORE.INTER.VDW>
-13.9554

>  <SCORE.INTER.norm>
-0.656889

>  <SCORE.INTRA>
1.85052

>  <SCORE.INTRA.DIHEDRAL>
2.69946

>  <SCORE.INTRA.DIHEDRAL.0>
4.88619

>  <SCORE.INTRA.POLAR>
0

>  <SCORE.INTRA.POLAR.0>
0

>  <SCORE.INTRA.REPUL>
0

>  <SCORE.INTRA.REPUL.0>
0

>  <SCORE.INTRA.SOLV>
2.47778

>  <SCORE.INTRA.SOLV.lig_0>
-73.8187

>  <SCORE.INTRA.VDW>
-0.738094

>  <SCORE.INTRA.VDW.0>
-1.32335

>  <SCORE.INTRA.norm>
0.0841148

>  <SCORE.RESTR>
0

>  <SCORE.RESTR.CAVITY>
0

>  <SCORE.RESTR.norm>
0

>  <SCORE.SYSTEM>
0

>  <SCORE.SYSTEM.CONST>
0

>  <SCORE.SYSTEM.DIHEDRAL>
0

>  <SCORE.SYSTEM.SOLV>
0

>  <SCORE.SYSTEM.norm>
0

>  <SCORE.heavy>
22

>  <SCORE.norm>
-0.572775

>  <RMSD>
5.460

$$$$
2fcx_lig
 OpenBabel11021811433D
libRbt.so/2013.1/901 2013/11/27
 22 23  0  0  0  0  0  0  0  0999 V2000
   23.6294   15.5077   11.3778 N   0  0  0  0  0  0  0  0  0  0  0  0
   26.7360   11.7264   11.7311 N   0  0  0  0  0  0  0  0  0  0  0  0
   24.8091    7.8304   10.8906 N   0  0  0  0  0  0  0  0  0  0  0  0
   22.7418   11.8691   14.5070 O   0  0  0  0  0  0  0  0  0  0  0  0
   23.7712   12.6693   13.9192 C   0  0  2  0  0  0  0  0  0  0  0  0
   25.5510   10.1858   16.9007 N   0  0  0  0  0  0  0  0  0  0  0  0
   22.3313   14.5842   13.7847 O   0  0  0  0  0  0  0  0  0  0  0  0
   23.1523   13.7182   12.9923 C   0  0  1  0  0  0  0  0  0  0  0  0
   25.4596   10.9267   14.1288 O   0  0  0  0  0  0  0  0  0  0  0  0
   24.2420   14.5393   12.2990 C   0  0  1  0  0  0  0  0  0  0  0  0
   24.4877    8.8668   13.5776 O   0  0  0  0  0  0  0  0  0  0  0  0
   25.1864   13.6248   11.5115 C   0  0  0  0  0  0  0  0  0  0  0  0
   27.6867    7.0366   13.8908 O   0  0  0  0  0  0  0  0  0  0  0  0
   25.8277   12.6159   12.4685 C   0  0  1  0  0  0  0  0  0  0  0  0
   27.2716    7.9158   16.5525 O   0  0  0  0  0  0  0  0  0  0  0  0
   24.7736   11.7686   13.1872 C   0  0  2  0  0  0  0  0  0  0  0  0
   24.6544    9.8425   14.6228 C   0  0  1  0  0  0  0  0  0  0  0  0
   25.7188    8.2536   13.1448 C   0  0  2  0  0  0  0  0  0  0  0  0
   25.4441    7.2079   12.0618 C   0  0  0  0  0  0  0  0  0  0  0  0
   26.4250    7.5624   14.3143 C   0  0  2  0  0  0  0  0  0  0  0  0
   26.6695    8.5733   15.4359 C   0  0  1  0  0  0  0  0  0  0  0  0
   25.3298    9.1956   15.8382 C   0  0  1  0  0  0  0  0  0  0  0  0
  5  4  1  6  0  0  0
  5  8  1  0  0  0  0
  5 16  1  0  0  0  0
  8  7  1  1  0  0  0
  8 10  1  0  0  0  0
 10  1  1  6  0  0  0
 10 12  1  0  0  0  0
 11 18  1  0  0  0  0
 12 14  1  0  0  0  0
 14  2  1  6  0  0  0
 14 16  1  0  0  0  0
 16  9  1  1  0  0  0
 17  9  1  6  0  0  0
 17 11  1  0  0  0  0
 17 22  1  0  0  0  0
 18 19  1  6  0  0  0
 18 20  1  0  0  0  0
 19  3  1  0  0  0  0
 20 13  1  6  0  0  0
 20 21  1  0  0  0  0
 21 15  1  1  0  0  0
 21 22  1  0  0  0  0
 22  6  1  1  0  0  0
M  END
>  <CHROM.1>
74.90622235,72.23864979,60.43277437,25.08382590,10.70319090,13.62094788,-2.72180150
-1.14715429,1.74159941

>  <Name>
2fcx_lig

>  <RI>
4.08374e+07

>  <Rbt.Current_Directory>
/home/itssahil/PROJECTS/Mol_Feturizer/New_Systems/rnas/2fcx

>  <Rbt.Executable>
rbdock ($Id: //depot/dev/client3/rdock/2013.1/src/exe/rbdock.cxx#4 $)

>  <Rbt.Library>
libRbt.so (2013.1, Build901 2013/11/27)

>  <Rbt.Parameter_File>
/export/apps/rDock/src/rDock_2013.1_src/data/scripts/dock_solv.prm

>  <Rbt.Receptor>
prm/pocket_docking_7.prm

>  <SCORE>
-14.3064

>  <SCORE.INTER>
-12.5509

>  <SCORE.INTER.CONST>
1

>  <SCORE.INTER.POLAR>
-1.45698

>  <SCORE.INTER.ROT>
3

>  <SCORE.INTER.SOLV>
14.4951

>  <SCORE.INTER.VDW>
-13.9424

>  <SCORE.INTER.norm>
-0.570496

>  <SCORE.INTRA>
-1.75552

>  <SCORE.INTRA.DIHEDRAL>
-3.12127

>  <SCORE.INTRA.DIHEDRAL.0>
4.88619

>  <SCORE.INTRA.POLAR>
0

>  <SCORE.INTRA.POLAR.0>
0

>  <SCORE.INTRA.REPUL>
0

>  <SCORE.INTRA.REPUL.0>
0

>  <SCORE.INTRA.SOLV>
-0.482491

>  <SCORE.INTRA.SOLV.lig_0>
-73.8187

>  <SCORE.INTRA.VDW>
0.0463573

>  <SCORE.INTRA.VDW.0>
-1.32335

>  <SCORE.INTRA.norm>
-0.0797965

>  <SCORE.RESTR>
0

>  <SCORE.RESTR.CAVITY>
0

>  <SCORE.RESTR.norm>
0

>  <SCORE.SYSTEM>
0

>  <SCORE.SYSTEM.CONST>
0

>  <SCORE.SYSTEM.DIHEDRAL>
0

>  <SCORE.SYSTEM.SOLV>
0

>  <SCORE.SYSTEM.norm>
0

>  <SCORE.heavy>
22

>  <SCORE.norm>
-0.650293

>  <RMSD>
5.464

$$$$
2fcx_lig
 OpenBabel11021811433D
libRbt.so/2013.1/901 2013/11/27
 22 23  0  0  0  0  0  0  0  0999 V2000
   30.5671   16.9660   18.2149 N   0  0  0  0  0  0  0  0  0  0  0  0
   29.8403   14.0761   14.3168 N   0  0  0  0  0  0  0  0  0  0  0  0
   27.2936   12.7956   12.1907 N   0  0  0  0  0  0  0  0  0  0  0  0
   28.7044   12.4899   18.7748 O   0  0  0  0  0  0  0  0  0  0  0  0
   29.6410   13.2724   18.0291 C   0  0  2  0  0  0  0  0  0  0  0  0
   29.2576    9.2925   17.3023 N   0  0  0  0  0  0  0  0  0  0  0  0
   30.1046   14.6805   19.9160 O   0  0  0  0  0  0  0  0  0  0  0  0
   29.6572   14.7094   18.5555 C   0  0  1  0  0  0  0  0  0  0  0  0
   29.4745   11.8656   16.0481 O   0  0  0  0  0  0  0  0  0  0  0  0
   30.6021   15.5804   17.7244 C   0  0  1  0  0  0  0  0  0  0  0  0
   27.5905   11.4164   14.7288 O   0  0  0  0  0  0  0  0  0  0  0  0
   30.1944   15.5597   16.2474 C   0  0  0  0  0  0  0  0  0  0  0  0
   29.4574    9.1733   12.4563 O   0  0  0  0  0  0  0  0  0  0  0  0
   30.2316   14.1179   15.7329 C   0  0  1  0  0  0  0  0  0  0  0  0
   29.6069    7.7548   14.9049 O   0  0  0  0  0  0  0  0  0  0  0  0
   29.2988   13.2063   16.5357 C   0  0  2  0  0  0  0  0  0  0  0  0
   28.2493   11.1165   15.9732 C   0  0  1  0  0  0  0  0  0  0  0  0
   28.3397   11.0292   13.5594 C   0  0  2  0  0  0  0  0  0  0  0  0
   27.5515   11.3511   12.2878 C   0  0  0  0  0  0  0  0  0  0  0  0
   28.6379    9.5275   13.5745 C   0  0  2  0  0  0  0  0  0  0  0  0
   29.3835    9.1653   14.8600 C   0  0  1  0  0  0  0  0  0  0  0  0
   28.5440    9.6140   16.0591 C   0  0  1  0  0  0  0  0  0  0  0  0
  5  4  1  1  0  0  0
  5  8  1  0  0  0  0
  5 16  1  0  0  0  0
  8  7  1  1  0  0  0
  8 10  1  0  0  0  0
 10  1  1  1  0  0  0
 10 12  1  0  0  0  0
 11 18  1  0  0  0  0
 12 14  1  0  0  0  0
 14  2  1  6  0  0  0
 14 16  1  0  0  0  0
 16  9  1  6  0  0  0
 17  9  1  6  0  0  0
 17 11  1  0  0  0  0
 17 22  1  0  0  0  0
 18 19  1  6  0  0  0
 18 20  1  0  0  0  0
 19  3  1  0  0  0  0
 20 13  1  6  0  0  0
 20 21  1  0  0  0  0
 21 15  1  1  0  0  0
 21 22  1  0  0  0  0
 22  6  1  1  0  0  0
M  END
>  <CHROM.1>
98.43005412,84.20696630,61.05030735,29.18864133,12.18115433,15.82227396,0.48626617
-1.34107666,-0.39044310

>  <Name>
2fcx_lig

>  <RI>
4.08374e+07

>  <Rbt.Current_Directory>
/home/itssahil/PROJECTS/Mol_Feturizer/New_Systems/rnas/2fcx

>  <Rbt.Executable>
rbdock ($Id: //depot/dev/client3/rdock/2013.1/src/exe/rbdock.cxx#4 $)

>  <Rbt.Library>
libRbt.so (2013.1, Build901 2013/11/27)

>  <Rbt.Parameter_File>
/export/apps/rDock/src/rDock_2013.1_src/data/scripts/dock_solv.prm

>  <Rbt.Receptor>
prm/pocket_docking_7.prm

>  <SCORE>
-12.9846

>  <SCORE.INTER>
-14.5371

>  <SCORE.INTER.CONST>
1

>  <SCORE.INTER.POLAR>
-1.64768

>  <SCORE.INTER.ROT>
3

>  <SCORE.INTER.SOLV>
13.5559

>  <SCORE.INTER.VDW>
-14.3178

>  <SCORE.INTER.norm>
-0.660779

>  <SCORE.INTRA>
1.54564

>  <SCORE.INTRA.DIHEDRAL>
2.78685

>  <SCORE.INTRA.DIHEDRAL.0>
4.88619

>  <SCORE.INTRA.POLAR>
0

>  <SCORE.INTRA.POLAR.0>
0

>  <SCORE.INTRA.REPUL>
0

>  <SCORE.INTRA.REPUL.0>
0

>  <SCORE.INTRA.SOLV>
2.0009

>  <SCORE.INTRA.SOLV.lig_0>
-73.8187

>  <SCORE.INTRA.VDW>
-0.848235

>  <SCORE.INTRA.VDW.0>
-1.32335

>  <SCORE.INTRA.norm>
0.0702565

>  <SCORE.RESTR>
0.00688725

>  <SCORE.RESTR.CAVITY>
0.00688725

>  <SCORE.RESTR.norm>
0.000313057

>  <SCORE.SYSTEM>
0

>  <SCORE.SYSTEM.CONST>
0

>  <SCORE.SYSTEM.DIHEDRAL>
0

>  <SCORE.SYSTEM.SOLV>
0

>  <SCORE.SYSTEM.norm>
0

>  <SCORE.heavy>
22

>  <SCORE.norm>
-0.59021

>  <RMSD>
5.500

$$$$
2fcx_lig
 OpenBabel11021811433D
libRbt.so/2013.1/901 2013/11/27
 22 23  0  0  0  0  0  0  0  0999 V2000
   26.3424    7.4816    7.6073 N   0  0  0  0  0  0  0  0  0  0  0  0
   24.1240    6.5532   11.8842 N   0  0  0  0  0  0  0  0  0  0  0  0
   23.6127   11.1568   13.4519 N   0  0  0  0  0  0  0  0  0  0  0  0
   28.0808    9.3827   11.7525 O   0  0  0  0  0  0  0  0  0  0  0  0
   27.4633    8.2298   11.1737 C   0  0  2  0  0  0  0  0  0  0  0  0
   28.1758    6.9228   15.3998 N   0  0  0  0  0  0  0  0  0  0  0  0
   28.5734    8.5771    9.0748 O   0  0  0  0  0  0  0  0  0  0  0  0
   27.2774    8.4370    9.6687 C   0  0  1  0  0  0  0  0  0  0  0  0
   26.3823    7.5729   13.2547 O   0  0  0  0  0  0  0  0  0  0  0  0
   26.5540    7.2425    9.0425 C   0  0  1  0  0  0  0  0  0  0  0  0
   26.1271    9.7492   14.0855 O   0  0  0  0  0  0  0  0  0  0  0  0
   25.1978    7.0187    9.7200 C   0  0  0  0  0  0  0  0  0  0  0  0
   23.8755    8.6681   16.8137 O   0  0  0  0  0  0  0  0  0  0  0  0
   25.4148    6.7675   11.2148 C   0  0  1  0  0  0  0  0  0  0  0  0
   26.2896    7.3616   17.5173 O   0  0  0  0  0  0  0  0  0  0  0  0
   26.1370    7.9392   11.8866 C   0  0  2  0  0  0  0  0  0  0  0  0
   27.0092    8.6132   14.0244 C   0  0  1  0  0  0  0  0  0  0  0  0
   24.8776    9.4871   14.7557 C   0  0  2  0  0  0  0  0  0  0  0  0
   24.0211   10.7542   14.8060 C   0  0  0  0  0  0  0  0  0  0  0  0
   25.1175    9.0100   16.1907 C   0  0  2  0  0  0  0  0  0  0  0  0
   26.0136    7.7706   16.1764 C   0  0  1  0  0  0  0  0  0  0  0  0
   27.3127    8.1109   15.4412 C   0  0  1  0  0  0  0  0  0  0  0  0
  5  4  1  1  0  0  0
  5  8  1  0  0  0  0
  5 16  1  0  0  0  0
  8  7  1  6  0  0  0
  8 10  1  0  0  0  0
 10  1  1  6  0  0  0
 10 12  1  0  0  0  0
 11 18  1  0  0  0  0
 12 14  1  0  0  0  0
 14  2  1  1  0  0  0
 14 16  1  0  0  0  0
 16  9  1  1  0  0  0
 17  9  1  6  0  0  0
 17 11  1  0  0  0  0
 17 22  1  0  0  0  0
 18 19  1  1  0  0  0
 18 20  1  0  0  0  0
 19  3  1  0  0  0  0
 20 13  1  6  0  0  0
 20 21  1  0  0  0  0
 21 15  1  1  0  0  0
 21 22  1  0  0  0  0
 22  6  1  6  0  0  0
M  END
>  <CHROM.1>
62.13251560,62.83652393,65.74341360,26.10044529,8.32354012,12.98241700,1.34063378
0.48141351,-1.59502625

>  <Name>
2fcx_lig

>  <RI>
0

>  <Rbt.Current_Directory>
/home/itssahil/PROJECTS/Mol_Feturizer/New_Systems/rnas/2fcx

>  <Rbt.Executable>
rbdock ($Id: //depot/dev/client3/rdock/2013.1/src/exe/rbdock.cxx#4 $)

>  <Rbt.Library>
libRbt.so (2013.1, Build901 2013/11/27)

>  <Rbt.Parameter_File>
/export/apps/rDock/src/rDock_2013.1_src/data/scripts/dock_solv.prm

>  <Rbt.Receptor>
prm/pocket_docking_6.prm

>  <SCORE>
-15.6991

>  <SCORE.INTER>
-14.0644

>  <SCORE.INTER.CONST>
1

>  <SCORE.INTER.POLAR>
-1.73129

>  <SCORE.INTER.ROT>
3

>  <SCORE.INTER.SOLV>
16.8548

>  <SCORE.INTER.VDW>
-14.8236

>  <SCORE.INTER.norm>
-0.639291

>  <SCORE.INTRA>
-1.66842

>  <SCORE.INTRA.DIHEDRAL>
-4.7003

>  <SCORE.INTRA.DIHEDRAL.0>
4.88619

>  <SCORE.INTRA.POLAR>
0

>  <SCORE.INTRA.POLAR.0>
0

>  <SCORE.INTRA.REPUL>
0

>  <SCORE.INTRA.REPUL.0>
0

>  <SCORE.INTRA.SOLV>
-0.986443

>  <SCORE.INTRA.SOLV.lig_0>
-73.8187

>  <SCORE.INTRA.VDW>
1.17495

>  <SCORE.INTRA.VDW.0>
-1.32335

>  <SCORE.INTRA.norm>
-0.0758373

>  <SCORE.RESTR>
0.033717

>  <SCORE.RESTR.CAVITY>
0.033717

>  <SCORE.RESTR.norm>
0.00153259

>  <SCORE.SYSTEM>
0

>  <SCORE.SYSTEM.CONST>
0

>  <SCORE.SYSTEM.DIHEDRAL>
0

>  <SCORE.SYSTEM.SOLV>
0

>  <SCORE.SYSTEM.norm>
0

>  <SCORE.heavy>
22

>  <SCORE.norm>
-0.713596

>  <RMSD>
5.535

$$$$
2fcx_lig
 OpenBabel11021811433D
libRbt.so/2013.1/901 2013/11/27
 22 23  0  0  0  0  0  0  0  0999 V2000
   30.5133   10.4746   16.7187 N   0  0  0  0  0  0  0  0  0  0  0  0
   27.6690    7.5999   13.9400 N   0  0  0  0  0  0  0  0  0  0  0  0
   28.5115    5.7249    9.9939 N   0  0  0  0  0  0  0  0  0  0  0  0
   29.6438   11.6292   12.0572 O   0  0  0  0  0  0  0  0  0  0  0  0
   29.0698   11.0662   13.2400 C   0  0  2  0  0  0  0  0  0  0  0  0
   26.5196   11.8897   10.4948 N   0  0  0  0  0  0  0  0  0  0  0  0
   30.3730   12.4942   14.6614 O   0  0  0  0  0  0  0  0  0  0  0  0
   30.0812   11.1188   14.3875 C   0  0  1  0  0  0  0  0  0  0  0  0
   27.5153    9.6584   12.0018 O   0  0  0  0  0  0  0  0  0  0  0  0
   29.5104   10.4568   15.6437 C   0  0  1  0  0  0  0  0  0  0  0  0
   28.2351    8.6098   10.0336 O   0  0  0  0  0  0  0  0  0  0  0  0
   29.1103    9.0062   15.3537 C   0  0  0  0  0  0  0  0  0  0  0  0
   24.8134    7.5716    9.0872 O   0  0  0  0  0  0  0  0  0  0  0  0
   28.0642    8.9843   14.2356 C   0  0  1  0  0  0  0  0  0  0  0  0
   24.6047   10.3951    8.9672 O   0  0  0  0  0  0  0  0  0  0  0  0
   28.5914    9.6374   12.9545 C   0  0  2  0  0  0  0  0  0  0  0  0
   27.9500    9.8795   10.6491 C   0  0  1  0  0  0  0  0  0  0  0  0
   27.0901    7.7405    9.9229 C   0  0  2  0  0  0  0  0  0  0  0  0
   27.4758    6.4332    9.2271 C   0  0  0  0  0  0  0  0  0  0  0  0
   25.9749    8.4070    9.1128 C   0  0  2  0  0  0  0  0  0  0  0  0
   25.6009    9.7429    9.7570 C   0  0  1  0  0  0  0  0  0  0  0  0
   26.8586   10.6102    9.8574 C   0  0  1  0  0  0  0  0  0  0  0  0
  5  4  1  6  0  0  0
  5  8  1  0  0  0  0
  5 16  1  0  0  0  0
  8  7  1  1  0  0  0
  8 10  1  0  0  0  0
 10  1  1  1  0  0  0
 10 12  1  0  0  0  0
 11 18  1  0  0  0  0
 12 14  1  0  0  0  0
 14  2  1  6  0  0  0
 14 16  1  0  0  0  0
 16  9  1  6  0  0  0
 17  9  1  1  0  0  0
 17 11  1  0  0  0  0
 17 22  1  0  0  0  0
 18 19  1  6  0  0  0
 18 20  1  0  0  0  0
 19  3  1  0  0  0  0
 20 13  1  1  0  0  0
 20 21  1  0  0  0  0
 21 15  1  6  0  0  0
 21 22  1  0  0  0  0
 22  6  1  1  0  0  0
M  END
>  <CHROM.1>
76.60197681,89.45394046,60.48301227,27.88541081,9.51881238,11.89057997,-0.39310485
0.99032422,-3.06892752

>  <Name>
2fcx_lig

>  <RI>
4.08374e+07

>  <Rbt.Current_Directory>
/home/itssahil/PROJECTS/Mol_Feturizer/New_Systems/rnas/2fcx

>  <Rbt.Executable>
rbdock ($Id: //depot/dev/client3/rdock/2013.1/src/exe/rbdock.cxx#4 $)

>  <Rbt.Library>
libRbt.so (2013.1, Build901 2013/11/27)

>  <Rbt.Parameter_File>
/export/apps/rDock/src/rDock_2013.1_src/data/scripts/dock_solv.prm

>  <Rbt.Receptor>
prm/pocket_docking_7.prm

>  <SCORE>
-11.5963

>  <SCORE.INTER>
-11.5136

>  <SCORE.INTER.CONST>
1

>  <SCORE.INTER.POLAR>
-2.73187

>  <SCORE.INTER.ROT>
3

>  <SCORE.INTER.SOLV>
15.8367

>  <SCORE.INTER.VDW>
-9.44839

>  <SCORE.INTER.norm>
-0.523345

>  <SCORE.INTRA>
-0.0826983

>  <SCORE.INTRA.DIHEDRAL>
-0.104727

>  <SCORE.INTRA.DIHEDRAL.0>
4.88619

>  <SCORE.INTRA.POLAR>
0

>  <SCORE.INTRA.POLAR.0>
0

>  <SCORE.INTRA.REPUL>
0

>  <SCORE.INTRA.REPUL.0>
0

>  <SCORE.INTRA.SOLV>
0.0667335

>  <SCORE.INTRA.SOLV.lig_0>
-73.8187

>  <SCORE.INTRA.VDW>
-0.0637018

>  <SCORE.INTRA.VDW.0>
-1.32335

>  <SCORE.INTRA.norm>
-0.00375901

>  <SCORE.RESTR>
0

>  <SCORE.RESTR.CAVITY>
0

>  <SCORE.RESTR.norm>
0

>  <SCORE.SYSTEM>
0

>  <SCORE.SYSTEM.CONST>
0

>  <SCORE.SYSTEM.DIHEDRAL>
0

>  <SCORE.SYSTEM.SOLV>
0

>  <SCORE.SYSTEM.norm>
0

>  <SCORE.heavy>
22

>  <SCORE.norm>
-0.527104

>  <RMSD>
5.606

$$$$
2fcx_lig
 OpenBabel11021811433D
libRbt.so/2013.1/901 2013/11/27
 22 23  0  0  0  0  0  0  0  0999 V2000
   29.2496    8.6694   18.8061 N   0  0  0  0  0  0  0  0  0  0  0  0
   27.6464    7.5475   14.3065 N   0  0  0  0  0  0  0  0  0  0  0  0
   28.2556    6.4869   10.2924 N   0  0  0  0  0  0  0  0  0  0  0  0
   30.1570   11.6494   15.0491 O   0  0  0  0  0  0  0  0  0  0  0  0
   29.1896   10.7655   15.6220 C   0  0  2  0  0  0  0  0  0  0  0  0
   28.7729   12.3573   11.6682 N   0  0  0  0  0  0  0  0  0  0  0  0
   29.8689   11.3232   17.8549 O   0  0  0  0  0  0  0  0  0  0  0  0
   29.7056   10.2201   16.9557 C   0  0  1  0  0  0  0  0  0  0  0  0
   28.2091   10.1928   13.4676 O   0  0  0  0  0  0  0  0  0  0  0  0
   28.7145    9.2172   17.5509 C   0  0  1  0  0  0  0  0  0  0  0  0
   28.6306    8.6314   11.7717 O   0  0  0  0  0  0  0  0  0  0  0  0
   28.4570    8.0680   16.5705 C   0  0  0  0  0  0  0  0  0  0  0  0
   25.3876    9.2533   10.1050 O   0  0  0  0  0  0  0  0  0  0  0  0
   27.8978    8.6351   15.2626 C   0  0  1  0  0  0  0  0  0  0  0  0
   26.6700   11.7629    9.8084 O   0  0  0  0  0  0  0  0  0  0  0  0
   28.8575    9.6459   14.6280 C   0  0  2  0  0  0  0  0  0  0  0  0
   28.9275    9.9584   12.2442 C   0  0  1  0  0  0  0  0  0  0  0  0
   27.2433    8.4233   11.4384 C   0  0  2  0  0  0  0  0  0  0  0  0
   27.0262    7.0026   10.9130 C   0  0  0  0  0  0  0  0  0  0  0  0
   26.7866    9.4108   10.3611 C   0  0  2  0  0  0  0  0  0  0  0  0
   27.0373   10.8424   10.8377 C   0  0  1  0  0  0  0  0  0  0  0  0
   28.5203   10.9923   11.1873 C   0  0  1  0  0  0  0  0  0  0  0  0
  5  4  1  6  0  0  0
  5  8  1  0  0  0  0
  5 16  1  0  0  0  0
  8  7  1  1  0  0  0
  8 10  1  0  0  0  0
 10  1  1  1  0  0  0
 10 12  1  0  0  0  0
 11 18  1  0  0  0  0
 12 14  1  0  0  0  0
 14  2  1  6  0  0  0
 14 16  1  0  0  0  0
 16  9  1  6  0  0  0
 17  9  1  1  0  0  0
 17 11  1  0  0  0  0
 17 22  1  0  0  0  0
 18 19  1  6  0  0  0
 18 20  1  0  0  0  0
 19  3  1  0  0  0  0
 20 13  1  1  0  0  0
 20 21  1  0  0  0  0
 21 15  1  6  0  0  0
 21 22  1  0  0  0  0
 22  6  1  1  0  0  0
M  END
>  <CHROM.1>
119.58833052,81.83419864,-27.28182842,28.23197709,9.61998124,13.46417276
0.57108505,1.19386588,2.47872489

>  <Name>
2fcx_lig

>  <RI>
0

>  <Rbt.Current_Directory>
/home/itssahil/PROJECTS/Mol_Feturizer/New_Systems/rnas/2fcx

>  <Rbt.Executable>
rbdock ($Id: //depot/dev/client3/rdock/2013.1/src/exe/rbdock.cxx#4 $)

>  <Rbt.Library>
libRbt.so (2013.1, Build901 2013/11/27)

>  <Rbt.Parameter_File>
/export/apps/rDock/src/rDock_2013.1_src/data/scripts/dock_solv.prm

>  <Rbt.Receptor>
prm/pocket_docking_6.prm

>  <SCORE>
-6.8903

>  <SCORE.INTER>
-11.4341

>  <SCORE.INTER.CONST>
1

>  <SCORE.INTER.POLAR>
-1.90228

>  <SCORE.INTER.ROT>
3

>  <SCORE.INTER.SOLV>
11.9966

>  <SCORE.INTER.VDW>
-10.8806

>  <SCORE.INTER.norm>
-0.51973

>  <SCORE.INTRA>
4.54375

>  <SCORE.INTRA.DIHEDRAL>
7.42351

>  <SCORE.INTRA.DIHEDRAL.0>
4.88619

>  <SCORE.INTRA.POLAR>
0

>  <SCORE.INTRA.POLAR.0>
0

>  <SCORE.INTRA.REPUL>
0

>  <SCORE.INTRA.REPUL.0>
0

>  <SCORE.INTRA.SOLV>
3.08321

>  <SCORE.INTRA.SOLV.lig_0>
-73.8187

>  <SCORE.INTRA.VDW>
-0.709608

>  <SCORE.INTRA.VDW.0>
-1.32335

>  <SCORE.INTRA.norm>
0.206534

>  <SCORE.RESTR>
0

>  <SCORE.RESTR.CAVITY>
0

>  <SCORE.RESTR.norm>
0

>  <SCORE.SYSTEM>
0

>  <SCORE.SYSTEM.CONST>
0

>  <SCORE.SYSTEM.DIHEDRAL>
0

>  <SCORE.SYSTEM.SOLV>
0

>  <SCORE.SYSTEM.norm>
0

>  <SCORE.heavy>
22

>  <SCORE.norm>
-0.313195

>  <RMSD>
5.691

$$$$
2fcx_lig
 OpenBabel11021811433D
libRbt.so/2013.1/901 2013/11/27
 22 23  0  0  0  0  0  0  0  0999 V2000
   31.3194   12.5503   14.5215 N   0  0  0  0  0  0  0  0  0  0  0  0
   28.4464    8.8445   13.0766 N   0  0  0  0  0  0  0  0  0  0  0  0
   28.7015    6.1173    9.9239 N   0  0  0  0  0  0  0  0  0  0  0  0
   29.3458   12.5538   10.0579 O   0  0  0  0  0  0  0  0  0  0  0  0
   29.1204   12.2045   11.4264 C   0  0  2  0  0  0  0  0  0  0  0  0
   26.0385   11.9700    9.0324 N   0  0  0  0  0  0  0  0  0  0  0  0
   30.4500   14.0425   12.2088 O   0  0  0  0  0  0  0  0  0  0  0  0
   30.3247   12.6171   12.2760 C   0  0  1  0  0  0  0  0  0  0  0  0
   27.5823   10.3991   10.8733 O   0  0  0  0  0  0  0  0  0  0  0  0
   30.1328   12.1883   13.7326 C   0  0  1  0  0  0  0  0  0  0  0  0
   28.0482    8.8319    9.1944 O   0  0  0  0  0  0  0  0  0  0  0  0
   29.9112   10.6748   13.8237 C   0  0  0  0  0  0  0  0  0  0  0  0
   24.6743    7.3266    9.3723 O   0  0  0  0  0  0  0  0  0  0  0  0
   28.6747   10.2946   13.0044 C   0  0  1  0  0  0  0  0  0  0  0  0
   24.0809    9.9477    8.4735 O   0  0  0  0  0  0  0  0  0  0  0  0
   28.8207   10.7045   11.5360 C   0  0  2  0  0  0  0  0  0  0  0  0
   27.7215   10.2096    9.4547 C   0  0  1  0  0  0  0  0  0  0  0  0
   27.0260    7.8992    9.5995 C   0  0  2  0  0  0  0  0  0  0  0  0
   27.4404    6.4673    9.2535 C   0  0  0  0  0  0  0  0  0  0  0  0
   25.7009    8.2014    8.8945 C   0  0  2  0  0  0  0  0  0  0  0  0
   25.2845    9.6449    9.1815 C   0  0  1  0  0  0  0  0  0  0  0  0
   26.4147   10.5798    8.7427 C   0  0  1  0  0  0  0  0  0  0  0  0
  5  4  1  6  0  0  0
  5  8  1  0  0  0  0
  5 16  1  0  0  0  0
  8  7  1  1  0  0  0
  8 10  1  0  0  0  0
 10  1  1  1  0  0  0
 10 12  1  0  0  0  0
 11 18  1  0  0  0  0
 12 14  1  0  0  0  0
 14  2  1  6  0  0  0
 14 16  1  0  0  0  0
 16  9  1  6  0  0  0
 17  9  1  1  0  0  0
 17 11  1  0  0  0  0
 17 22  1  0  0  0  0
 18 19  1  6  0  0  0
 18 20  1  0  0  0  0
 19  3  1  0  0  0  0
 20 13  1  1  0  0  0
 20 21  1  0  0  0  0
 21 15  1  6  0  0  0
 21 22  1  0  0  0  0
 22  6  1  1  0  0  0
M  END
>  <CHROM.1>
83.49055826,87.40458452,59.20186423,27.94462588,10.19802062,10.77362532,-0.55152468
0.77964114,3.06303461

>  <Name>
2fcx_lig

>  <RI>
4.08374e+07

>  <Rbt.Current_Directory>
/home/itssahil/PROJECTS/Mol_Feturizer/New_Systems/rnas/2fcx

>  <Rbt.Executable>
rbdock ($Id: //depot/dev/client3/rdock/2013.1/src/exe/rbdock.cxx#4 $)

>  <Rbt.Library>
libRbt.so (2013.1, Build901 2013/11/27)

>  <Rbt.Parameter_File>
/export/apps/rDock/src/rDock_2013.1_src/data/scripts/dock_solv.prm

>  <Rbt.Receptor>
prm/pocket_docking_7.prm

>  <SCORE>
-9.33534

>  <SCORE.INTER>
-9.58593

>  <SCORE.INTER.CONST>
1

>  <SCORE.INTER.POLAR>
-2.25683

>  <SCORE.INTER.ROT>
3

>  <SCORE.INTER.SOLV>
13.3988

>  <SCORE.INTER.VDW>
-8.93412

>  <SCORE.INTER.norm>
-0.435724

>  <SCORE.INTRA>
0.250595

>  <SCORE.INTRA.DIHEDRAL>
0.632599

>  <SCORE.INTRA.DIHEDRAL.0>
4.88619

>  <SCORE.INTRA.POLAR>
0

>  <SCORE.INTRA.POLAR.0>
0

>  <SCORE.INTRA.REPUL>
0

>  <SCORE.INTRA.REPUL.0>
0

>  <SCORE.INTRA.SOLV>
0.578911

>  <SCORE.INTRA.SOLV.lig_0>
-73.8187

>  <SCORE.INTRA.VDW>
-0.35516

>  <SCORE.INTRA.VDW.0>
-1.32335

>  <SCORE.INTRA.norm>
0.0113907

>  <SCORE.RESTR>
0

>  <SCORE.RESTR.CAVITY>
0

>  <SCORE.RESTR.norm>
0

>  <SCORE.SYSTEM>
0

>  <SCORE.SYSTEM.CONST>
0

>  <SCORE.SYSTEM.DIHEDRAL>
0

>  <SCORE.SYSTEM.SOLV>
0

>  <SCORE.SYSTEM.norm>
0

>  <SCORE.heavy>
22

>  <SCORE.norm>
-0.424334

>  <RMSD>
5.708

$$$$
2fcx_lig
 OpenBabel11021811433D
libRbt.so/2013.1/901 2013/11/27
 22 23  0  0  0  0  0  0  0  0999 V2000
   28.9400   14.5421   20.3406 N   0  0  0  0  0  0  0  0  0  0  0  0
   29.6161   11.3562   16.6707 N   0  0  0  0  0  0  0  0  0  0  0  0
   25.2729    9.9983   15.8581 N   0  0  0  0  0  0  0  0  0  0  0  0
   27.3491    9.9454   20.7390 O   0  0  0  0  0  0  0  0  0  0  0  0
   28.3995   10.7698   20.2264 C   0  0  2  0  0  0  0  0  0  0  0  0
   29.6622    6.5766   19.2221 N   0  0  0  0  0  0  0  0  0  0  0  0
   28.1779   12.3325   22.0340 O   0  0  0  0  0  0  0  0  0  0  0  0
   28.1486   12.2313   20.6054 C   0  0  1  0  0  0  0  0  0  0  0  0
   28.9316    9.2325   18.4141 O   0  0  0  0  0  0  0  0  0  0  0  0
   29.2250   13.1391   20.0059 C   0  0  1  0  0  0  0  0  0  0  0  0
   26.7783    8.5018   17.8473 O   0  0  0  0  0  0  0  0  0  0  0  0
   29.2716   12.9854   18.4819 C   0  0  0  0  0  0  0  0  0  0  0  0
   27.9174    6.9124   14.7076 O   0  0  0  0  0  0  0  0  0  0  0  0
   29.5702   11.5254   18.1300 C   0  0  1  0  0  0  0  0  0  0  0  0
   29.2677    5.3578   16.6544 O   0  0  0  0  0  0  0  0  0  0  0  0
   28.5168   10.5767   18.7096 C   0  0  2  0  0  0  0  0  0  0  0  0
   27.9206    8.2467   18.6854 C   0  0  1  0  0  0  0  0  0  0  0  0
   27.0478    8.3848   16.4357 C   0  0  2  0  0  0  0  0  0  0  0  0
   25.7745    8.6358   15.6249 C   0  0  0  0  0  0  0  0  0  0  0  0
   27.5694    6.9865   16.0935 C   0  0  2  0  0  0  0  0  0  0  0  0
   28.8166    6.6860   16.9265 C   0  0  1  0  0  0  0  0  0  0  0  0
   28.4675    6.8408   18.4091 C   0  0  1  0  0  0  0  0  0  0  0  0
  5  4  1  6  0  0  0
  5  8  1  0  0  0  0
  5 16  1  0  0  0  0
  8  7  1  1  0  0  0
  8 10  1  0  0  0  0
 10  1  1  6  0  0  0
 10 12  1  0  0  0  0
 11 18  1  0  0  0  0
 12 14  1  0  0  0  0
 14  2  1  6  0  0  0
 14 16  1  0  0  0  0
 16  9  1  1  0  0  0
 17  9  1  6  0  0  0
 17 11  1  0  0  0  0
 17 22  1  0  0  0  0
 18 19  1  6  0  0  0
 18 20  1  0  0  0  0
 19  3  1  0  0  0  0
 20 13  1  6  0  0  0
 20 21  1  0  0  0  0
 21 15  1  1  0  0  0
 21 22  1  0  0  0  0
 22  6  1  1  0  0  0
M  END
>  <CHROM.1>
70.23269855,62.10755537,61.58822567,28.20044286,9.59340907,18.21949767,1.30032993
-1.11848350,0.34453682

>  <Name>
2fcx_lig

>  <RI>
4.08374e+07

>  <Rbt.Current_Directory>
/home/itssahil/PROJECTS/Mol_Feturizer/New_Systems/rnas/2fcx

>  <Rbt.Executable>
rbdock ($Id: //depot/dev/client3/rdock/2013.1/src/exe/rbdock.cxx#4 $)

>  <Rbt.Library>
libRbt.so (2013.1, Build901 2013/11/27)

>  <Rbt.Parameter_File>
/export/apps/rDock/src/rDock_2013.1_src/data/scripts/dock_solv.prm

>  <Rbt.Receptor>
prm/pocket_docking_7.prm

>  <SCORE>
-17.5623

>  <SCORE.INTER>
-15.3973

>  <SCORE.INTER.CONST>
1

>  <SCORE.INTER.POLAR>
-0.916515

>  <SCORE.INTER.ROT>
3

>  <SCORE.INTER.SOLV>
16.5003

>  <SCORE.INTER.VDW>
-18.3099

>  <SCORE.INTER.norm>
-0.699879

>  <SCORE.INTRA>
-2.165

>  <SCORE.INTRA.DIHEDRAL>
-4.3429

>  <SCORE.INTRA.DIHEDRAL.0>
4.88619

>  <SCORE.INTRA.POLAR>
0

>  <SCORE.INTRA.POLAR.0>
0

>  <SCORE.INTRA.REPUL>
0

>  <SCORE.INTRA.REPUL.0>
0

>  <SCORE.INTRA.SOLV>
-0.756184

>  <SCORE.INTRA.SOLV.lig_0>
-73.8187

>  <SCORE.INTRA.VDW>
0.384545

>  <SCORE.INTRA.VDW.0>
-1.32335

>  <SCORE.INTRA.norm>
-0.098409

>  <SCORE.RESTR>
0

>  <SCORE.RESTR.CAVITY>
0

>  <SCORE.RESTR.norm>
0

>  <SCORE.SYSTEM>
0

>  <SCORE.SYSTEM.CONST>
0

>  <SCORE.SYSTEM.DIHEDRAL>
0

>  <SCORE.SYSTEM.SOLV>
0

>  <SCORE.SYSTEM.norm>
0

>  <SCORE.heavy>
22

>  <SCORE.norm>
-0.798288

>  <RMSD>
5.724

$$$$
2fcx_lig
 OpenBabel11021811433D
libRbt.so/2013.1/901 2013/11/27
 22 23  0  0  0  0  0  0  0  0999 V2000
   28.8665   14.5422   20.3449 N   0  0  0  0  0  0  0  0  0  0  0  0
   29.6113   11.3661   16.6799 N   0  0  0  0  0  0  0  0  0  0  0  0
   25.2639    9.9832   15.8817 N   0  0  0  0  0  0  0  0  0  0  0  0
   27.3329    9.9251   20.7311 O   0  0  0  0  0  0  0  0  0  0  0  0
   28.3761   10.7632   20.2265 C   0  0  2  0  0  0  0  0  0  0  0  0
   29.7144    6.5812   19.1987 N   0  0  0  0  0  0  0  0  0  0  0  0
   28.1208   12.3225   22.0325 O   0  0  0  0  0  0  0  0  0  0  0  0
   28.1034   12.2212   20.6037 C   0  0  1  0  0  0  0  0  0  0  0  0
   28.9417    9.2334   18.4180 O   0  0  0  0  0  0  0  0  0  0  0  0
   29.1723   13.1431   20.0123 C   0  0  1  0  0  0  0  0  0  0  0  0
   26.7912    8.4798   17.8707 O   0  0  0  0  0  0  0  0  0  0  0  0
   29.2321   12.9904   18.4887 C   0  0  0  0  0  0  0  0  0  0  0  0
   27.9135    6.9265   14.7070 O   0  0  0  0  0  0  0  0  0  0  0  0
   29.5524   11.5344   18.1388 C   0  0  1  0  0  0  0  0  0  0  0  0
   29.3053    5.3754   16.6272 O   0  0  0  0  0  0  0  0  0  0  0  0
   28.5072   10.5719   18.7105 C   0  0  2  0  0  0  0  0  0  0  0  0
   27.9461    8.2331   18.6939 C   0  0  1  0  0  0  0  0  0  0  0  0
   27.0459    8.3759   16.4553 C   0  0  2  0  0  0  0  0  0  0  0  0
   25.7602    8.6167   15.6611 C   0  0  0  0  0  0  0  0  0  0  0  0
   27.5807    6.9866   16.0974 C   0  0  2  0  0  0  0  0  0  0  0  0
   28.8410    6.6959   16.9138 C   0  0  1  0  0  0  0  0  0  0  0  0
   28.5072    6.8362   18.4014 C   0  0  1  0  0  0  0  0  0  0  0  0
  5  4  1  6  0  0  0
  5  8  1  0  0  0  0
  5 16  1  0  0  0  0
  8  7  1  1  0  0  0
  8 10  1  0  0  0  0
 10  1  1  6  0  0  0
 10 12  1  0  0  0  0
 11 18  1  0  0  0  0
 12 14  1  0  0  0  0
 14  2  1  6  0  0  0
 14 16  1  0  0  0  0
 16  9  1  1  0  0  0
 17  9  1  6  0  0  0
 17 11  1  0  0  0  0
 17 22  1  0  0  0  0
 18 19  1  6  0  0  0
 18 20  1  0  0  0  0
 19  3  1  0  0  0  0
 20 13  1  6  0  0  0
 20 21  1  0  0  0  0
 21 15  1  1  0  0  0
 21 22  1  0  0  0  0
 22  6  1  1  0  0  0
M  END
>  <CHROM.1>
69.66622514,61.30407682,63.08849780,28.19349439,9.59065626,18.22265815,1.33218042
-1.10459499,0.37416075

>  <Name>
2fcx_lig

>  <RI>
4.08374e+07

>  <Rbt.Current_Directory>
/home/itssahil/PROJECTS/Mol_Feturizer/New_Systems/rnas/2fcx

>  <Rbt.Executable>
rbdock ($Id: //depot/dev/client3/rdock/2013.1/src/exe/rbdock.cxx#4 $)

>  <Rbt.Library>
libRbt.so (2013.1, Build901 2013/11/27)

>  <Rbt.Parameter_File>
/export/apps/rDock/src/rDock_2013.1_src/data/scripts/dock_solv.prm

>  <Rbt.Receptor>
prm/pocket_docking_7.prm

>  <SCORE>
-17.4552

>  <SCORE.INTER>
-15.3074

>  <SCORE.INTER.CONST>
1

>  <SCORE.INTER.POLAR>
-0.916515

>  <SCORE.INTER.ROT>
3

>  <SCORE.INTER.SOLV>
16.6297

>  <SCORE.INTER.VDW>
-18.2931

>  <SCORE.INTER.norm>
-0.695791

>  <SCORE.INTRA>
-2.14777

>  <SCORE.INTRA.DIHEDRAL>
-4.38509

>  <SCORE.INTRA.DIHEDRAL.0>
4.88619

>  <SCORE.INTRA.POLAR>
0

>  <SCORE.INTRA.POLAR.0>
0

>  <SCORE.INTRA.REPUL>
0

>  <SCORE.INTRA.REPUL.0>
0

>  <SCORE.INTRA.SOLV>
-0.779463

>  <SCORE.INTRA.SOLV.lig_0>
-73.8187

>  <SCORE.INTRA.VDW>
0.434507

>  <SCORE.INTRA.VDW.0>
-1.32335

>  <SCORE.INTRA.norm>
-0.097626

>  <SCORE.RESTR>
0

>  <SCORE.RESTR.CAVITY>
0

>  <SCORE.RESTR.norm>
0

>  <SCORE.SYSTEM>
0

>  <SCORE.SYSTEM.CONST>
0

>  <SCORE.SYSTEM.DIHEDRAL>
0

>  <SCORE.SYSTEM.SOLV>
0

>  <SCORE.SYSTEM.norm>
0

>  <SCORE.heavy>
22

>  <SCORE.norm>
-0.793417

>  <RMSD>
5.731

$$$$
2fcx_lig
 OpenBabel11021811433D
libRbt.so/2013.1/901 2013/11/27
 22 23  0  0  0  0  0  0  0  0999 V2000
   28.9113   14.4894   20.3539 N   0  0  0  0  0  0  0  0  0  0  0  0
   29.6393   11.2827   16.7122 N   0  0  0  0  0  0  0  0  0  0  0  0
   25.3276    9.9808   15.9272 N   0  0  0  0  0  0  0  0  0  0  0  0
   27.3906    9.8726   20.7908 O   0  0  0  0  0  0  0  0  0  0  0  0
   28.4286   10.7085   20.2719 C   0  0  2  0  0  0  0  0  0  0  0  0
   29.7402    6.4962   19.2181 N   0  0  0  0  0  0  0  0  0  0  0  0
   28.1816   12.2831   22.0658 O   0  0  0  0  0  0  0  0  0  0  0  0
   28.1551   12.1692   20.6381 C   0  0  1  0  0  0  0  0  0  0  0  0
   28.9858    9.1640   18.4733 O   0  0  0  0  0  0  0  0  0  0  0  0
   29.2180   13.0881   20.0316 C   0  0  1  0  0  0  0  0  0  0  0  0
   26.8307    8.4324   17.9147 O   0  0  0  0  0  0  0  0  0  0  0  0
   29.2682   12.9221   18.5090 C   0  0  0  0  0  0  0  0  0  0  0  0
   27.9444    6.9151   14.7306 O   0  0  0  0  0  0  0  0  0  0  0  0
   29.5895   11.4638   18.1699 C   0  0  1  0  0  0  0  0  0  0  0  0
   29.3246    5.3285   16.6301 O   0  0  0  0  0  0  0  0  0  0  0  0
   28.5502   10.5041   18.7569 C   0  0  2  0  0  0  0  0  0  0  0  0
   27.9834    8.1667   18.7350 C   0  0  1  0  0  0  0  0  0  0  0  0
   27.0854    8.3462   16.4981 C   0  0  2  0  0  0  0  0  0  0  0  0
   25.8019    8.6065   15.7066 C   0  0  0  0  0  0  0  0  0  0  0  0
   27.6111    6.9584   16.1215 C   0  0  2  0  0  0  0  0  0  0  0  0
   28.8690    6.6481   16.9345 C   0  0  1  0  0  0  0  0  0  0  0  0
   28.5352    6.7702   18.4236 C   0  0  1  0  0  0  0  0  0  0  0  0
  5  4  1  6  0  0  0
  5  8  1  0  0  0  0
  5 16  1  0  0  0  0
  8  7  1  1  0  0  0
  8 10  1  0  0  0  0
 10  1  1  6  0  0  0
 10 12  1  0  0  0  0
 11 18  1  0  0  0  0
 12 14  1  0  0  0  0
 14  2  1  6  0  0  0
 14 16  1  0  0  0  0
 16  9  1  1  0  0  0
 17  9  1  6  0  0  0
 17 11  1  0  0  0  0
 17 22  1  0  0  0  0
 18 19  1  6  0  0  0
 18 20  1  0  0  0  0
 19  3  1  0  0  0  0
 20 13  1  6  0  0  0
 20 21  1  0  0  0  0
 21 15  1  1  0  0  0
 21 22  1  0  0  0  0
 22  6  1  1  0  0  0
M  END
>  <CHROM.1>
71.04157977,60.04605743,64.07992634,28.23385641,9.54065649,18.25544055,1.32717323
-1.11404699,0.36977122

>  <Name>
2fcx_lig

>  <RI>
1.15031e+07

>  <Rbt.Current_Directory>
/home/itssahil/PROJECTS/Mol_Feturizer/New_Systems/rnas/2fcx

>  <Rbt.Executable>
rbdock ($Id: //depot/dev/client3/rdock/2013.1/src/exe/rbdock.cxx#4 $)

>  <Rbt.Library>
libRbt.so (2013.1, Build901 2013/11/27)

>  <Rbt.Parameter_File>
/export/apps/rDock/src/rDock_2013.1_src/data/scripts/dock_solv.prm

>  <Rbt.Receptor>
prm/pocket_docking_8.prm

>  <SCORE>
-17.4216

>  <SCORE.INTER>
-15.2795

>  <SCORE.INTER.CONST>
1

>  <SCORE.INTER.POLAR>
-0.916515

>  <SCORE.INTER.ROT>
3

>  <SCORE.INTER.SOLV>
16.4031

>  <SCORE.INTER.VDW>
-18.199

>  <SCORE.INTER.norm>
-0.694524

>  <SCORE.INTRA>
-2.14206

>  <SCORE.INTRA.DIHEDRAL>
-4.23479

>  <SCORE.INTRA.DIHEDRAL.0>
4.88619

>  <SCORE.INTRA.POLAR>
0

>  <SCORE.INTRA.POLAR.0>
0

>  <SCORE.INTRA.REPUL>
0

>  <SCORE.INTRA.REPUL.0>
0

>  <SCORE.INTRA.SOLV>
-0.736227

>  <SCORE.INTRA.SOLV.lig_0>
-73.8187

>  <SCORE.INTRA.VDW>
0.343449

>  <SCORE.INTRA.VDW.0>
-1.32335

>  <SCORE.INTRA.norm>
-0.0973662

>  <SCORE.RESTR>
0

>  <SCORE.RESTR.CAVITY>
0

>  <SCORE.RESTR.norm>
0

>  <SCORE.SYSTEM>
0

>  <SCORE.SYSTEM.CONST>
0

>  <SCORE.SYSTEM.DIHEDRAL>
0

>  <SCORE.SYSTEM.SOLV>
0

>  <SCORE.SYSTEM.norm>
0

>  <SCORE.heavy>
22

>  <SCORE.norm>
-0.79189

>  <RMSD>
5.748

$$$$
2fcx_lig
 OpenBabel11021811433D
libRbt.so/2013.1/901 2013/11/27
 22 23  0  0  0  0  0  0  0  0999 V2000
   29.4897    7.3889   19.6947 N   0  0  0  0  0  0  0  0  0  0  0  0
   30.1853    8.3862   14.9412 N   0  0  0  0  0  0  0  0  0  0  0  0
   28.4135    6.2981   10.1007 N   0  0  0  0  0  0  0  0  0  0  0  0
   25.7043    7.4947   16.6161 O   0  0  0  0  0  0  0  0  0  0  0  0
   27.0820    7.1348   16.7496 C   0  0  2  0  0  0  0  0  0  0  0  0
   25.7919    9.6788   14.9086 N   0  0  0  0  0  0  0  0  0  0  0  0
   26.8001    6.5548   19.0610 O   0  0  0  0  0  0  0  0  0  0  0  0
   27.5541    7.3976   18.1816 C   0  0  1  0  0  0  0  0  0  0  0  0
   27.5609    7.4790   14.3867 O   0  0  0  0  0  0  0  0  0  0  0  0
   29.0452    7.0848   18.3266 C   0  0  1  0  0  0  0  0  0  0  0  0
   27.6756    8.0676   12.1213 O   0  0  0  0  0  0  0  0  0  0  0  0
   29.8683    7.9138   17.3349 C   0  0  0  0  0  0  0  0  0  0  0  0
   24.3234    6.6919   11.3786 O   0  0  0  0  0  0  0  0  0  0  0  0
   29.4090    7.5980   15.9087 C   0  0  1  0  0  0  0  0  0  0  0  0
   23.6904    8.8001   13.1634 O   0  0  0  0  0  0  0  0  0  0  0  0
   27.9193    7.8962   15.7147 C   0  0  2  0  0  0  0  0  0  0  0  0
   27.4517    8.5670   13.4528 C   0  0  1  0  0  0  0  0  0  0  0  0
   26.7004    7.0990   11.6855 C   0  0  2  0  0  0  0  0  0  0  0  0
   26.9941    6.6515   10.2519 C   0  0  0  0  0  0  0  0  0  0  0  0
   25.2884    7.6895   11.7266 C   0  0  2  0  0  0  0  0  0  0  0  0
   24.9832    8.1921   13.1386 C   0  0  1  0  0  0  0  0  0  0  0  0
   26.0591    9.2028   13.5447 C   0  0  1  0  0  0  0  0  0  0  0  0
  5  4  1  1  0  0  0
  5  8  1  0  0  0  0
  5 16  1  0  0  0  0
  8  7  1  1  0  0  0
  8 10  1  0  0  0  0
 10  1  1  1  0  0  0
 10 12  1  0  0  0  0
 11 18  1  0  0  0  0
 12 14  1  0  0  0  0
 14  2  1  6  0  0  0
 14 16  1  0  0  0  0
 16  9  1  6  0  0  0
 17  9  1  1  0  0  0
 17 11  1  0  0  0  0
 17 22  1  0  0  0  0
 18 19  1  6  0  0  0
 18 20  1  0  0  0  0
 19  3  1  0  0  0  0
 20 13  1  1  0  0  0
 20 21  1  0  0  0  0
 21 15  1  6  0  0  0
 21 22  1  0  0  0  0
 22  6  1  1  0  0  0
M  END
>  <CHROM.1>
137.54625806,155.10764100,48.29823651,27.13543467,7.68405858,14.64019643
-1.20689607,0.13898690,-1.60954350

>  <Name>
2fcx_lig

>  <RI>
3.23342e+07

>  <Rbt.Current_Directory>
/home/itssahil/PROJECTS/Mol_Feturizer/New_Systems/rnas/2fcx

>  <Rbt.Executable>
rbdock ($Id: //depot/dev/client3/rdock/2013.1/src/exe/rbdock.cxx#4 $)

>  <Rbt.Library>
libRbt.so (2013.1, Build901 2013/11/27)

>  <Rbt.Parameter_File>
/export/apps/rDock/src/rDock_2013.1_src/data/scripts/dock_solv.prm

>  <Rbt.Receptor>
prm/pocket_docking_5.prm

>  <SCORE>
-13.5427

>  <SCORE.INTER>
-16.2677

>  <SCORE.INTER.CONST>
1

>  <SCORE.INTER.POLAR>
-2.13061

>  <SCORE.INTER.ROT>
3

>  <SCORE.INTER.SOLV>
17.9054

>  <SCORE.INTER.VDW>
-15.3115

>  <SCORE.INTER.norm>
-0.739439

>  <SCORE.INTRA>
2.72496

>  <SCORE.INTRA.DIHEDRAL>
4.03893

>  <SCORE.INTRA.DIHEDRAL.0>
4.88619

>  <SCORE.INTRA.POLAR>
0

>  <SCORE.INTRA.POLAR.0>
0

>  <SCORE.INTRA.REPUL>
0

>  <SCORE.INTRA.REPUL.0>
0

>  <SCORE.INTRA.SOLV>
2.26267

>  <SCORE.INTRA.SOLV.lig_0>
-73.8187

>  <SCORE.INTRA.VDW>
-0.425842

>  <SCORE.INTRA.VDW.0>
-1.32335

>  <SCORE.INTRA.norm>
0.123862

>  <SCORE.RESTR>
0

>  <SCORE.RESTR.CAVITY>
0

>  <SCORE.RESTR.norm>
0

>  <SCORE.SYSTEM>
0

>  <SCORE.SYSTEM.CONST>
0

>  <SCORE.SYSTEM.DIHEDRAL>
0

>  <SCORE.SYSTEM.SOLV>
0

>  <SCORE.SYSTEM.norm>
0

>  <SCORE.heavy>
22

>  <SCORE.norm>
-0.615578

>  <RMSD>
5.764

$$$$
2fcx_lig
 OpenBabel11021811433D
libRbt.so/2013.1/901 2013/11/27
 22 23  0  0  0  0  0  0  0  0999 V2000
   29.2788    9.2308   12.1922 N   0  0  0  0  0  0  0  0  0  0  0  0
   31.1747   13.7158   12.7963 N   0  0  0  0  0  0  0  0  0  0  0  0
   28.8293   10.9379   18.7750 N   0  0  0  0  0  0  0  0  0  0  0  0
   30.6667   10.7473   16.6185 O   0  0  0  0  0  0  0  0  0  0  0  0
   30.0700   11.1577   15.3853 C   0  0  2  0  0  0  0  0  0  0  0  0
   30.2108   16.2364   15.2623 N   0  0  0  0  0  0  0  0  0  0  0  0
   29.0476    9.0112   15.0609 O   0  0  0  0  0  0  0  0  0  0  0  0
   29.9314    9.9567   14.4468 C   0  0  1  0  0  0  0  0  0  0  0  0
   30.8452   13.4568   15.5966 O   0  0  0  0  0  0  0  0  0  0  0  0
   29.3592   10.3886   13.0947 C   0  0  1  0  0  0  0  0  0  0  0  0
   28.8971   13.1313   16.8578 O   0  0  0  0  0  0  0  0  0  0  0  0
   30.2433   11.4643   12.4546 C   0  0  0  0  0  0  0  0  0  0  0  0
   30.3307   14.7264   19.8714 O   0  0  0  0  0  0  0  0  0  0  0  0
   30.3276   12.6726   13.3914 C   0  0  1  0  0  0  0  0  0  0  0  0
   30.2667   16.8994   18.0536 O   0  0  0  0  0  0  0  0  0  0  0  0
   30.8963   12.2886   14.7607 C   0  0  2  0  0  0  0  0  0  0  0  0
   29.5102   13.9357   15.8334 C   0  0  1  0  0  0  0  0  0  0  0  0
   29.5562   13.2080   18.1378 C   0  0  2  0  0  0  0  0  0  0  0  0
   28.8190   12.3539   19.1716 C   0  0  0  0  0  0  0  0  0  0  0  0
   29.5961   14.6519   18.6456 C   0  0  2  0  0  0  0  0  0  0  0  0
   30.2848   15.5415   17.6093 C   0  0  1  0  0  0  0  0  0  0  0  0
   29.5473   15.4039   16.2747 C   0  0  1  0  0  0  0  0  0  0  0  0
  5  4  1  1  0  0  0
  5  8  1  0  0  0  0
  5 16  1  0  0  0  0
  8  7  1  1  0  0  0
  8 10  1  0  0  0  0
 10  1  1  6  0  0  0
 10 12  1  0  0  0  0
 11 18  1  0  0  0  0
 12 14  1  0  0  0  0
 14  2  1  6  0  0  0
 14 16  1  0  0  0  0
 16  9  1  1  0  0  0
 17  9  1  1  0  0  0
 17 11  1  0  0  0  0
 17 22  1  0  0  0  0
 18 19  1  1  0  0  0
 18 20  1  0  0  0  0
 19  3  1  0  0  0  0
 20 13  1  1  0  0  0
 20 21  1  0  0  0  0
 21 15  1  1  0  0  0
 21 22  1  0  0  0  0
 22  6  1  6  0  0  0
M  END
>  <CHROM.1>
-57.80162893,79.66200200,62.08274216,29.89889476,12.78176102,15.96942507
1.61102310,-1.32306628,-2.30897584

>  <Name>
2fcx_lig

>  <RI>
1.15031e+07

>  <Rbt.Current_Directory>
/home/itssahil/PROJECTS/Mol_Feturizer/New_Systems/rnas/2fcx

>  <Rbt.Executable>
rbdock ($Id: //depot/dev/client3/rdock/2013.1/src/exe/rbdock.cxx#4 $)

>  <Rbt.Library>
libRbt.so (2013.1, Build901 2013/11/27)

>  <Rbt.Parameter_File>
/export/apps/rDock/src/rDock_2013.1_src/data/scripts/dock_solv.prm

>  <Rbt.Receptor>
prm/pocket_docking_8.prm

>  <SCORE>
-12.8271

>  <SCORE.INTER>
-13.4682

>  <SCORE.INTER.CONST>
1

>  <SCORE.INTER.POLAR>
-1.04886

>  <SCORE.INTER.ROT>
3

>  <SCORE.INTER.SOLV>
15.2376

>  <SCORE.INTER.VDW>
-16.1617

>  <SCORE.INTER.norm>
-0.612189

>  <SCORE.INTRA>
0.629832

>  <SCORE.INTRA.DIHEDRAL>
-3.09469

>  <SCORE.INTRA.DIHEDRAL.0>
4.88619

>  <SCORE.INTRA.POLAR>
0

>  <SCORE.INTRA.POLAR.0>
0

>  <SCORE.INTRA.REPUL>
0

>  <SCORE.INTRA.REPUL.0>
0

>  <SCORE.INTRA.SOLV>
2.78331

>  <SCORE.INTRA.SOLV.lig_0>
-73.8187

>  <SCORE.INTRA.VDW>
0.785522

>  <SCORE.INTRA.VDW.0>
-1.32335

>  <SCORE.INTRA.norm>
0.0286287

>  <SCORE.RESTR>
0.01123

>  <SCORE.RESTR.CAVITY>
0.01123

>  <SCORE.RESTR.norm>
0.000510456

>  <SCORE.SYSTEM>
0

>  <SCORE.SYSTEM.CONST>
0

>  <SCORE.SYSTEM.DIHEDRAL>
0

>  <SCORE.SYSTEM.SOLV>
0

>  <SCORE.SYSTEM.norm>
0

>  <SCORE.heavy>
22

>  <SCORE.norm>
-0.58305

>  <RMSD>
5.810

$$$$
2fcx_lig
 OpenBabel11021811433D
libRbt.so/2013.1/901 2013/11/27
 22 23  0  0  0  0  0  0  0  0999 V2000
   29.4817    6.1031   20.0136 N   0  0  0  0  0  0  0  0  0  0  0  0
   27.0664    9.9718   18.2041 N   0  0  0  0  0  0  0  0  0  0  0  0
   23.1242    8.5921   13.8818 N   0  0  0  0  0  0  0  0  0  0  0  0
   28.6287    6.4585   15.2214 O   0  0  0  0  0  0  0  0  0  0  0  0
   28.9477    7.2006   16.4018 C   0  0  2  0  0  0  0  0  0  0  0  0
   28.8435   10.2029   13.0666 N   0  0  0  0  0  0  0  0  0  0  0  0
   30.2100    5.3764   17.3168 O   0  0  0  0  0  0  0  0  0  0  0  0
   29.1072    6.2490   17.5898 C   0  0  1  0  0  0  0  0  0  0  0  0
   27.8852    9.2380   15.5947 O   0  0  0  0  0  0  0  0  0  0  0  0
   29.3795    7.0304   18.8773 C   0  0  1  0  0  0  0  0  0  0  0  0
   25.9276    8.4396   14.5837 O   0  0  0  0  0  0  0  0  0  0  0  0
   28.2528    8.0334   19.1470 C   0  0  0  0  0  0  0  0  0  0  0  0
   24.4409   11.8157   14.3134 O   0  0  0  0  0  0  0  0  0  0  0  0
   28.1449    9.0021   17.9659 C   0  0  1  0  0  0  0  0  0  0  0  0
   26.6940   12.0485   12.6106 O   0  0  0  0  0  0  0  0  0  0  0  0
   27.8716    8.2642   16.6519 C   0  0  2  0  0  0  0  0  0  0  0  0
   27.3142    8.7587   14.3651 C   0  0  1  0  0  0  0  0  0  0  0  0
   25.1166    9.5713   14.9586 C   0  0  2  0  0  0  0  0  0  0  0  0
   23.6564    9.1486   15.1346 C   0  0  0  0  0  0  0  0  0  0  0  0
   25.1763   10.6643   13.8881 C   0  0  2  0  0  0  0  0  0  0  0  0
   26.6313   11.0738   13.6535 C   0  0  1  0  0  0  0  0  0  0  0  0
   27.4379    9.8292   13.2739 C   0  0  1  0  0  0  0  0  0  0  0  0
  5  4  1  6  0  0  0
  5  8  1  0  0  0  0
  5 16  1  0  0  0  0
  8  7  1  6  0  0  0
  8 10  1  0  0  0  0
 10  1  1  1  0  0  0
 10 12  1  0  0  0  0
 11 18  1  0  0  0  0
 12 14  1  0  0  0  0
 14  2  1  1  0  0  0
 14 16  1  0  0  0  0
 16  9  1  6  0  0  0
 17  9  1  1  0  0  0
 17 11  1  0  0  0  0
 17 22  1  0  0  0  0
 18 19  1  6  0  0  0
 18 20  1  0  0  0  0
 19  3  1  0  0  0  0
 20 13  1  1  0  0  0
 20 21  1  0  0  0  0
 21 15  1  6  0  0  0
 21 22  1  0  0  0  0
 22  6  1  1  0  0  0
M  END
>  <CHROM.1>
74.56604631,62.40619158,-60.03062200,27.23602825,8.78098378,15.72824670,0.95395193
-0.35650074,2.03638792

>  <Name>
2fcx_lig

>  <RI>
1.55453e+07

>  <Rbt.Current_Directory>
/home/itssahil/PROJECTS/Mol_Feturizer/New_Systems/rnas/2fcx

>  <Rbt.Executable>
rbdock ($Id: //depot/dev/client3/rdock/2013.1/src/exe/rbdock.cxx#4 $)

>  <Rbt.Library>
libRbt.so (2013.1, Build901 2013/11/27)

>  <Rbt.Parameter_File>
/export/apps/rDock/src/rDock_2013.1_src/data/scripts/dock_solv.prm

>  <Rbt.Receptor>
prm/pocket_docking_4.prm

>  <SCORE>
-10.7221

>  <SCORE.INTER>
-9.37739

>  <SCORE.INTER.CONST>
1

>  <SCORE.INTER.POLAR>
-0.709929

>  <SCORE.INTER.ROT>
3

>  <SCORE.INTER.SOLV>
12.5181

>  <SCORE.INTER.VDW>
-13.6579

>  <SCORE.INTER.norm>
-0.426245

>  <SCORE.INTRA>
-1.34474

>  <SCORE.INTRA.DIHEDRAL>
-3.85179

>  <SCORE.INTRA.DIHEDRAL.0>
4.88619

>  <SCORE.INTRA.POLAR>
0

>  <SCORE.INTRA.POLAR.0>
0

>  <SCORE.INTRA.REPUL>
0

>  <SCORE.INTRA.REPUL.0>
0

>  <SCORE.INTRA.SOLV>
0.74569

>  <SCORE.INTRA.SOLV.lig_0>
-73.8187

>  <SCORE.INTRA.VDW>
0.208313

>  <SCORE.INTRA.VDW.0>
-1.32335

>  <SCORE.INTRA.norm>
-0.0611243

>  <SCORE.RESTR>
0

>  <SCORE.RESTR.CAVITY>
0

>  <SCORE.RESTR.norm>
0

>  <SCORE.SYSTEM>
0

>  <SCORE.SYSTEM.CONST>
0

>  <SCORE.SYSTEM.DIHEDRAL>
0

>  <SCORE.SYSTEM.SOLV>
0

>  <SCORE.SYSTEM.norm>
0

>  <SCORE.heavy>
22

>  <SCORE.norm>
-0.487369

>  <RMSD>
5.842

$$$$
2fcx_lig
 OpenBabel11021811433D
libRbt.so/2013.1/901 2013/11/27
 22 23  0  0  0  0  0  0  0  0999 V2000
   29.8404    5.9542   18.8821 N   0  0  0  0  0  0  0  0  0  0  0  0
   27.8924    6.9626   14.4931 N   0  0  0  0  0  0  0  0  0  0  0  0
   27.7122    7.9402   10.1560 N   0  0  0  0  0  0  0  0  0  0  0  0
   30.5585   10.3124   16.8063 O   0  0  0  0  0  0  0  0  0  0  0  0
   29.6108    9.2576   16.9926 C   0  0  2  0  0  0  0  0  0  0  0  0
   28.7661   12.4199   14.0021 N   0  0  0  0  0  0  0  0  0  0  0  0
   30.4616    8.7571   19.1798 O   0  0  0  0  0  0  0  0  0  0  0  0
   30.2053    8.1749   17.8963 C   0  0  1  0  0  0  0  0  0  0  0  0
   28.4648    9.7070   14.8912 O   0  0  0  0  0  0  0  0  0  0  0  0
   29.2325    7.0036   18.0508 C   0  0  1  0  0  0  0  0  0  0  0  0
   28.7263    8.9257   12.6973 O   0  0  0  0  0  0  0  0  0  0  0  0
   28.8753    6.4159   16.6814 C   0  0  0  0  0  0  0  0  0  0  0  0
   25.2994    9.9119   11.7150 O   0  0  0  0  0  0  0  0  0  0  0  0
   28.2401    7.5060   15.8137 C   0  0  1  0  0  0  0  0  0  0  0  0
   26.4784   12.4283   12.2698 O   0  0  0  0  0  0  0  0  0  0  0  0
   29.1791    8.7020   15.6299 C   0  0  2  0  0  0  0  0  0  0  0  0
   29.0435    9.9956   13.6068 C   0  0  1  0  0  0  0  0  0  0  0  0
   27.3154    8.7669   12.4466 C   0  0  2  0  0  0  0  0  0  0  0  0
   27.0737    7.6353   11.4451 C   0  0  0  0  0  0  0  0  0  0  0  0
   26.7144   10.0536   11.8744 C   0  0  2  0  0  0  0  0  0  0  0  0
   26.9835   11.2157   12.8318 C   0  0  1  0  0  0  0  0  0  0  0  0
   28.4928   11.3209   13.0663 C   0  0  1  0  0  0  0  0  0  0  0  0
  5  4  1  6  0  0  0
  5  8  1  0  0  0  0
  5 16  1  0  0  0  0
  8  7  1  1  0  0  0
  8 10  1  0  0  0  0
 10  1  1  1  0  0  0
 10 12  1  0  0  0  0
 11 18  1  0  0  0  0
 12 14  1  0  0  0  0
 14  2  1  6  0  0  0
 14 16  1  0  0  0  0
 16  9  1  6  0  0  0
 17  9  1  1  0  0  0
 17 11  1  0  0  0  0
 17 22  1  0  0  0  0
 18 19  1  6  0  0  0
 18 20  1  0  0  0  0
 19  3  1  0  0  0  0
 20 13  1  1  0  0  0
 20 21  1  0  0  0  0
 21 15  1  6  0  0  0
 21 22  1  0  0  0  0
 22  6  1  1  0  0  0
M  END
>  <CHROM.1>
123.12287027,75.57281785,-61.50645439,28.41061413,9.09392806,14.60293392
0.50942260,1.09968937,2.95169634

>  <Name>
2fcx_lig

>  <RI>
4.08374e+07

>  <Rbt.Current_Directory>
/home/itssahil/PROJECTS/Mol_Feturizer/New_Systems/rnas/2fcx

>  <Rbt.Executable>
rbdock ($Id: //depot/dev/client3/rdock/2013.1/src/exe/rbdock.cxx#4 $)

>  <Rbt.Library>
libRbt.so (2013.1, Build901 2013/11/27)

>  <Rbt.Parameter_File>
/export/apps/rDock/src/rDock_2013.1_src/data/scripts/dock_solv.prm

>  <Rbt.Receptor>
prm/pocket_docking_7.prm

>  <SCORE>
-9.3077

>  <SCORE.INTER>
-12.456

>  <SCORE.INTER.CONST>
1

>  <SCORE.INTER.POLAR>
-1.78829

>  <SCORE.INTER.ROT>
3

>  <SCORE.INTER.SOLV>
13.282

>  <SCORE.INTER.VDW>
-12.3703

>  <SCORE.INTER.norm>
-0.566181

>  <SCORE.INTRA>
3.14827

>  <SCORE.INTRA.DIHEDRAL>
3.41397

>  <SCORE.INTRA.DIHEDRAL.0>
4.88619

>  <SCORE.INTRA.POLAR>
0

>  <SCORE.INTRA.POLAR.0>
0

>  <SCORE.INTRA.REPUL>
0

>  <SCORE.INTRA.REPUL.0>
0

>  <SCORE.INTRA.SOLV>
3.65336

>  <SCORE.INTRA.SOLV.lig_0>
-73.8187

>  <SCORE.INTRA.VDW>
-0.385393

>  <SCORE.INTRA.VDW.0>
-1.32335

>  <SCORE.INTRA.norm>
0.143103

>  <SCORE.RESTR>
0

>  <SCORE.RESTR.CAVITY>
0

>  <SCORE.RESTR.norm>
0

>  <SCORE.SYSTEM>
0

>  <SCORE.SYSTEM.CONST>
0

>  <SCORE.SYSTEM.DIHEDRAL>
0

>  <SCORE.SYSTEM.SOLV>
0

>  <SCORE.SYSTEM.norm>
0

>  <SCORE.heavy>
22

>  <SCORE.norm>
-0.423077

>  <RMSD>
5.853

$$$$
2fcx_lig
 OpenBabel11021811433D
libRbt.so/2013.1/901 2013/11/27
 22 23  0  0  0  0  0  0  0  0999 V2000
   30.7457    6.3088   18.6057 N   0  0  0  0  0  0  0  0  0  0  0  0
   29.8451   10.9355   17.2431 N   0  0  0  0  0  0  0  0  0  0  0  0
   27.9698    8.6134   10.0883 N   0  0  0  0  0  0  0  0  0  0  0  0
   27.4026    7.2662   15.1815 O   0  0  0  0  0  0  0  0  0  0  0  0
   28.6741    7.6601   15.7044 C   0  0  2  0  0  0  0  0  0  0  0  0
   30.5439   11.8325   14.4451 N   0  0  0  0  0  0  0  0  0  0  0  0
   29.2161    5.4077   16.3298 O   0  0  0  0  0  0  0  0  0  0  0  0
   29.0759    6.7334   16.8543 C   0  0  1  0  0  0  0  0  0  0  0  0
   28.4242    9.9749   14.9901 O   0  0  0  0  0  0  0  0  0  0  0  0
   30.4016    7.1816   17.4737 C   0  0  1  0  0  0  0  0  0  0  0  0
   28.6911    9.0013   12.8752 O   0  0  0  0  0  0  0  0  0  0  0  0
   30.3035    8.6291   17.9669 C   0  0  0  0  0  0  0  0  0  0  0  0
   26.9880   11.7917   11.1447 O   0  0  0  0  0  0  0  0  0  0  0  0
   29.9470    9.5412   16.7897 C   0  0  1  0  0  0  0  0  0  0  0  0
   29.2781   13.0877   12.1965 O   0  0  0  0  0  0  0  0  0  0  0  0
   28.6241    9.1308   16.1362 C   0  0  2  0  0  0  0  0  0  0  0  0
   29.3576    9.7273   13.9246 C   0  0  1  0  0  0  0  0  0  0  0  0
   27.6032    9.7220   12.2618 C   0  0  2  0  0  0  0  0  0  0  0  0
   26.9783    8.8928   11.1377 C   0  0  0  0  0  0  0  0  0  0  0  0
   28.0913   11.0468   11.6696 C   0  0  2  0  0  0  0  0  0  0  0  0
   28.7666   11.8789   12.7610 C   0  0  1  0  0  0  0  0  0  0  0  0
   29.8990   11.0543   13.3789 C   0  0  1  0  0  0  0  0  0  0  0  0
  5  4  1  1  0  0  0
  5  8  1  0  0  0  0
  5 16  1  0  0  0  0
  8  7  1  6  0  0  0
  8 10  1  0  0  0  0
 10  1  1  1  0  0  0
 10 12  1  0  0  0  0
 11 18  1  0  0  0  0
 12 14  1  0  0  0  0
 14  2  1  1  0  0  0
 14 16  1  0  0  0  0
 16  9  1  6  0  0  0
 17  9  1  1  0  0  0
 17 11  1  0  0  0  0
 17 22  1  0  0  0  0
 18 19  1  6  0  0  0
 18 20  1  0  0  0  0
 19  3  1  0  0  0  0
 20 13  1  1  0  0  0
 20 21  1  0  0  0  0
 21 15  1  6  0  0  0
 21 22  1  0  0  0  0
 22  6  1  1  0  0  0
M  END
>  <CHROM.1>
-51.83633406,104.64018283,-61.14686229,28.91989886,9.33939945,14.47344775
-1.07133723,-1.06411508,-0.54729617

>  <Name>
2fcx_lig

>  <RI>
1.21945e+07

>  <Rbt.Current_Directory>
/home/itssahil/PROJECTS/Mol_Feturizer/New_Systems/rnas/2fcx

>  <Rbt.Executable>
rbdock ($Id: //depot/dev/client3/rdock/2013.1/src/exe/rbdock.cxx#4 $)

>  <Rbt.Library>
libRbt.so (2013.1, Build901 2013/11/27)

>  <Rbt.Parameter_File>
/export/apps/rDock/src/rDock_2013.1_src/data/scripts/dock_solv.prm

>  <Rbt.Receptor>
prm/pocket_docking_3.prm

>  <SCORE>
-5.91089

>  <SCORE.INTER>
-9.18023

>  <SCORE.INTER.CONST>
1

>  <SCORE.INTER.POLAR>
-0.87178

>  <SCORE.INTER.ROT>
3

>  <SCORE.INTER.SOLV>
12.4957

>  <SCORE.INTER.VDW>
-12.9795

>  <SCORE.INTER.norm>
-0.417283

>  <SCORE.INTRA>
3.26934

>  <SCORE.INTRA.DIHEDRAL>
1.54651

>  <SCORE.INTRA.DIHEDRAL.0>
4.88619

>  <SCORE.INTRA.POLAR>
0

>  <SCORE.INTRA.POLAR.0>
0

>  <SCORE.INTRA.REPUL>
0

>  <SCORE.INTRA.REPUL.0>
0

>  <SCORE.INTRA.SOLV>
3.52154

>  <SCORE.INTRA.SOLV.lig_0>
-73.8187

>  <SCORE.INTRA.VDW>
0.735312

>  <SCORE.INTRA.VDW.0>
-1.32335

>  <SCORE.INTRA.norm>
0.148606

>  <SCORE.RESTR>
0

>  <SCORE.RESTR.CAVITY>
0

>  <SCORE.RESTR.norm>
0

>  <SCORE.SYSTEM>
0

>  <SCORE.SYSTEM.CONST>
0

>  <SCORE.SYSTEM.DIHEDRAL>
0

>  <SCORE.SYSTEM.SOLV>
0

>  <SCORE.SYSTEM.norm>
0

>  <SCORE.heavy>
22

>  <SCORE.norm>
-0.268677

>  <RMSD>
5.874

$$$$
2fcx_lig
 OpenBabel11021811433D
libRbt.so/2013.1/901 2013/11/27
 22 23  0  0  0  0  0  0  0  0999 V2000
   30.8868    7.9187   19.8336 N   0  0  0  0  0  0  0  0  0  0  0  0
   29.0936   11.3156   16.7808 N   0  0  0  0  0  0  0  0  0  0  0  0
   29.7384   12.9849   11.1726 N   0  0  0  0  0  0  0  0  0  0  0  0
   28.9757    6.6125   15.5371 O   0  0  0  0  0  0  0  0  0  0  0  0
   29.7469    7.6126   16.2085 C   0  0  2  0  0  0  0  0  0  0  0  0
   27.2466    7.4295   13.6125 N   0  0  0  0  0  0  0  0  0  0  0  0
   30.7237    5.9953   17.6877 O   0  0  0  0  0  0  0  0  0  0  0  0
   29.9655    7.2105   17.6689 C   0  0  1  0  0  0  0  0  0  0  0  0
   29.0355    9.3912   14.7046 O   0  0  0  0  0  0  0  0  0  0  0  0
   30.7291    8.3017   18.4229 C   0  0  1  0  0  0  0  0  0  0  0  0
   27.7863   11.1184   13.7311 O   0  0  0  0  0  0  0  0  0  0  0  0
   29.9788    9.6357   18.3453 C   0  0  0  0  0  0  0  0  0  0  0  0
   29.1447   10.4786   10.3508 O   0  0  0  0  0  0  0  0  0  0  0  0
   29.8144   10.0385   16.8771 C   0  0  1  0  0  0  0  0  0  0  0  0
   27.7293    8.0768   10.8589 O   0  0  0  0  0  0  0  0  0  0  0  0
   29.0538    8.9746   16.0801 C   0  0  2  0  0  0  0  0  0  0  0  0
   27.7300    9.7719   14.2370 C   0  0  1  0  0  0  0  0  0  0  0  0
   28.6556   11.2822   12.5925 C   0  0  2  0  0  0  0  0  0  0  0  0
   28.6262   12.7310   12.1005 C   0  0  0  0  0  0  0  0  0  0  0  0
   28.2223   10.3727   11.4395 C   0  0  2  0  0  0  0  0  0  0  0  0
   28.1938    8.9193   11.9153 C   0  0  1  0  0  0  0  0  0  0  0  0
   27.2674    8.8169   13.1298 C   0  0  1  0  0  0  0  0  0  0  0  0
  5  4  1  1  0  0  0
  5  8  1  0  0  0  0
  5 16  1  0  0  0  0
  8  7  1  6  0  0  0
  8 10  1  0  0  0  0
 10  1  1  1  0  0  0
 10 12  1  0  0  0  0
 11 18  1  0  0  0  0
 12 14  1  0  0  0  0
 14  2  1  1  0  0  0
 14 16  1  0  0  0  0
 16  9  1  6  0  0  0
 17  9  1  6  0  0  0
 17 11  1  0  0  0  0
 17 22  1  0  0  0  0
 18 19  1  6  0  0  0
 18 20  1  0  0  0  0
 19  3  1  0  0  0  0
 20 13  1  6  0  0  0
 20 21  1  0  0  0  0
 21 15  1  6  0  0  0
 21 22  1  0  0  0  0
 22  6  1  1  0  0  0
M  END
>  <CHROM.1>
128.45887460,123.36448015,165.98703785,29.01367437,9.29671227,14.65572841
-0.77174976,-1.22101655,-0.38665405

>  <Name>
2fcx_lig

>  <RI>
1.55453e+07

>  <Rbt.Current_Directory>
/home/itssahil/PROJECTS/Mol_Feturizer/New_Systems/rnas/2fcx

>  <Rbt.Executable>
rbdock ($Id: //depot/dev/client3/rdock/2013.1/src/exe/rbdock.cxx#4 $)

>  <Rbt.Library>
libRbt.so (2013.1, Build901 2013/11/27)

>  <Rbt.Parameter_File>
/export/apps/rDock/src/rDock_2013.1_src/data/scripts/dock_solv.prm

>  <Rbt.Receptor>
prm/pocket_docking_4.prm

>  <SCORE>
-6.99146

>  <SCORE.INTER>
-12.7793

>  <SCORE.INTER.CONST>
1

>  <SCORE.INTER.POLAR>
-1.87235

>  <SCORE.INTER.ROT>
3

>  <SCORE.INTER.SOLV>
14.9448

>  <SCORE.INTER.VDW>
-12.8599

>  <SCORE.INTER.norm>
-0.580875

>  <SCORE.INTRA>
5.7878

>  <SCORE.INTRA.DIHEDRAL>
9.80013

>  <SCORE.INTRA.DIHEDRAL.0>
4.88619

>  <SCORE.INTRA.POLAR>
0

>  <SCORE.INTRA.POLAR.0>
0

>  <SCORE.INTRA.REPUL>
0

>  <SCORE.INTRA.REPUL.0>
0

>  <SCORE.INTRA.SOLV>
2.75716

>  <SCORE.INTRA.SOLV.lig_0>
-73.8187

>  <SCORE.INTRA.VDW>
-0.490845

>  <SCORE.INTRA.VDW.0>
-1.32335

>  <SCORE.INTRA.norm>
0.263082

>  <SCORE.RESTR>
0

>  <SCORE.RESTR.CAVITY>
0

>  <SCORE.RESTR.norm>
0

>  <SCORE.SYSTEM>
0

>  <SCORE.SYSTEM.CONST>
0

>  <SCORE.SYSTEM.DIHEDRAL>
0

>  <SCORE.SYSTEM.SOLV>
0

>  <SCORE.SYSTEM.norm>
0

>  <SCORE.heavy>
22

>  <SCORE.norm>
-0.317794

>  <RMSD>
5.888

$$$$
2fcx_lig
 OpenBabel11021811433D
libRbt.so/2013.1/901 2013/11/27
 22 23  0  0  0  0  0  0  0  0999 V2000
   30.7210    8.7498   19.3351 N   0  0  0  0  0  0  0  0  0  0  0  0
   28.6446   11.7980   16.0991 N   0  0  0  0  0  0  0  0  0  0  0  0
   28.6708   13.2346   10.3737 N   0  0  0  0  0  0  0  0  0  0  0  0
   28.8536    7.0262   15.1684 O   0  0  0  0  0  0  0  0  0  0  0  0
   29.5586    8.1216   15.7589 C   0  0  2  0  0  0  0  0  0  0  0  0
   27.3137    7.4665   13.0825 N   0  0  0  0  0  0  0  0  0  0  0  0
   30.6703    6.6809   17.3231 O   0  0  0  0  0  0  0  0  0  0  0  0
   29.8253    7.8345   17.2384 C   0  0  1  0  0  0  0  0  0  0  0  0
   28.6996    9.7403   14.1548 O   0  0  0  0  0  0  0  0  0  0  0  0
   30.5171    9.0256   17.9054 C   0  0  1  0  0  0  0  0  0  0  0  0
   27.1791   11.1939   13.1219 O   0  0  0  0  0  0  0  0  0  0  0  0
   29.6706   10.2940   17.7541 C   0  0  0  0  0  0  0  0  0  0  0  0
   28.6948   10.7399    9.7786 O   0  0  0  0  0  0  0  0  0  0  0  0
   29.4579   10.5852   16.2659 C   0  0  1  0  0  0  0  0  0  0  0  0
   27.7247    8.1334   10.3220 O   0  0  0  0  0  0  0  0  0  0  0  0
   28.7664    9.4187   15.5541 C   0  0  2  0  0  0  0  0  0  0  0  0
   27.3561    9.8700   13.6587 C   0  0  1  0  0  0  0  0  0  0  0  0
   28.0264   11.4882   11.9931 C   0  0  2  0  0  0  0  0  0  0  0  0
   27.7465   12.8975   11.4666 C   0  0  0  0  0  0  0  0  0  0  0  0
   27.7857   10.4920   10.8555 C   0  0  2  0  0  0  0  0  0  0  0  0
   28.0099    9.0673   11.3651 C   0  0  1  0  0  0  0  0  0  0  0  0
   27.0939    8.8248   12.5676 C   0  0  1  0  0  0  0  0  0  0  0  0
  5  4  1  1  0  0  0
  5  8  1  0  0  0  0
  5 16  1  0  0  0  0
  8  7  1  6  0  0  0
  8 10  1  0  0  0  0
 10  1  1  1  0  0  0
 10 12  1  0  0  0  0
 11 18  1  0  0  0  0
 12 14  1  0  0  0  0
 14  2  1  1  0  0  0
 14 16  1  0  0  0  0
 16  9  1  6  0  0  0
 17  9  1  6  0  0  0
 17 11  1  0  0  0  0
 17 22  1  0  0  0  0
 18 19  1  6  0  0  0
 18 20  1  0  0  0  0
 19  3  1  0  0  0  0
 20 13  1  6  0  0  0
 20 21  1  0  0  0  0
 21 15  1  6  0  0  0
 21 22  1  0  0  0  0
 22  6  1  1  0  0  0
M  END
>  <CHROM.1>
122.91027654,120.83157744,176.18866920,28.68083396,9.64502073,14.10533594
-0.36673611,-1.25449136,-0.04051595

>  <Name>
2fcx_lig

>  <RI>
1.55453e+07

>  <Rbt.Current_Directory>
/home/itssahil/PROJECTS/Mol_Feturizer/New_Systems/rnas/2fcx

>  <Rbt.Executable>
rbdock ($Id: //depot/dev/client3/rdock/2013.1/src/exe/rbdock.cxx#4 $)

>  <Rbt.Library>
libRbt.so (2013.1, Build901 2013/11/27)

>  <Rbt.Parameter_File>
/export/apps/rDock/src/rDock_2013.1_src/data/scripts/dock_solv.prm

>  <Rbt.Receptor>
prm/pocket_docking_4.prm

>  <SCORE>
-8.53649

>  <SCORE.INTER>
-14.7577

>  <SCORE.INTER.CONST>
1

>  <SCORE.INTER.POLAR>
-2.70602

>  <SCORE.INTER.ROT>
3

>  <SCORE.INTER.SOLV>
15.7491

>  <SCORE.INTER.VDW>
-11.6681

>  <SCORE.INTER.norm>
-0.670805

>  <SCORE.INTRA>
6.22122

>  <SCORE.INTRA.DIHEDRAL>
9.52781

>  <SCORE.INTRA.DIHEDRAL.0>
4.88619

>  <SCORE.INTRA.POLAR>
0

>  <SCORE.INTRA.POLAR.0>
0

>  <SCORE.INTRA.REPUL>
0

>  <SCORE.INTRA.REPUL.0>
0

>  <SCORE.INTRA.SOLV>
3.00612

>  <SCORE.INTRA.SOLV.lig_0>
-73.8187

>  <SCORE.INTRA.VDW>
-0.0457468

>  <SCORE.INTRA.VDW.0>
-1.32335

>  <SCORE.INTRA.norm>
0.282783

>  <SCORE.RESTR>
0

>  <SCORE.RESTR.CAVITY>
0

>  <SCORE.RESTR.norm>
0

>  <SCORE.SYSTEM>
0

>  <SCORE.SYSTEM.CONST>
0

>  <SCORE.SYSTEM.DIHEDRAL>
0

>  <SCORE.SYSTEM.SOLV>
0

>  <SCORE.SYSTEM.norm>
0

>  <SCORE.heavy>
22

>  <SCORE.norm>
-0.388022

>  <RMSD>
5.895

$$$$
2fcx_lig
 OpenBabel11021811433D
libRbt.so/2013.1/901 2013/11/27
 22 23  0  0  0  0  0  0  0  0999 V2000
   30.8578    8.0160   19.7675 N   0  0  0  0  0  0  0  0  0  0  0  0
   28.9744   11.4211   16.7787 N   0  0  0  0  0  0  0  0  0  0  0  0
   27.0764   13.1084   11.5978 N   0  0  0  0  0  0  0  0  0  0  0  0
   29.0267    6.7472   15.4251 O   0  0  0  0  0  0  0  0  0  0  0  0
   29.7580    7.7567   16.1263 C   0  0  2  0  0  0  0  0  0  0  0  0
   27.2829    7.4760   13.6499 N   0  0  0  0  0  0  0  0  0  0  0  0
   30.7775    6.1391   17.5762 O   0  0  0  0  0  0  0  0  0  0  0  0
   29.9785    7.3281   17.5789 C   0  0  1  0  0  0  0  0  0  0  0  0
   28.9985    9.5451   14.6579 O   0  0  0  0  0  0  0  0  0  0  0  0
   30.6983    8.4265   18.3647 C   0  0  1  0  0  0  0  0  0  0  0  0
   27.6871   11.1839   13.6156 O   0  0  0  0  0  0  0  0  0  0  0  0
   29.9037    9.7357   18.3115 C   0  0  0  0  0  0  0  0  0  0  0  0
   29.0689   10.4553   10.2628 O   0  0  0  0  0  0  0  0  0  0  0  0
   29.7375   10.1671   16.8517 C   0  0  1  0  0  0  0  0  0  0  0  0
   27.7422    8.0263   10.8713 O   0  0  0  0  0  0  0  0  0  0  0  0
   29.0200    9.0971   16.0235 C   0  0  2  0  0  0  0  0  0  0  0  0
   27.6801    9.8582   14.1767 C   0  0  1  0  0  0  0  0  0  0  0  0
   28.5501   11.3322   12.4702 C   0  0  2  0  0  0  0  0  0  0  0  0
   28.4678   12.7574   11.9189 C   0  0  0  0  0  0  0  0  0  0  0  0
   28.1507   10.3607   11.3562 C   0  0  2  0  0  0  0  0  0  0  0  0
   28.1753    8.9281   11.8915 C   0  0  1  0  0  0  0  0  0  0  0  0
   27.2530    8.8421   13.1105 C   0  0  1  0  0  0  0  0  0  0  0  0
  5  4  1  6  0  0  0
  5  8  1  0  0  0  0
  5 16  1  0  0  0  0
  8  7  1  6  0  0  0
  8 10  1  0  0  0  0
 10  1  1  1  0  0  0
 10 12  1  0  0  0  0
 11 18  1  0  0  0  0
 12 14  1  0  0  0  0
 14  2  1  1  0  0  0
 14 16  1  0  0  0  0
 16  9  1  6  0  0  0
 17  9  1  6  0  0  0
 17 11  1  0  0  0  0
 17 22  1  0  0  0  0
 18 19  1  6  0  0  0
 18 20  1  0  0  0  0
 19  3  1  0  0  0  0
 20 13  1  6  0  0  0
 20 21  1  0  0  0  0
 21 15  1  6  0  0  0
 21 22  1  0  0  0  0
 22  6  1  1  0  0  0
M  END
>  <CHROM.1>
126.88765040,127.44525024,-55.92062645,28.85720688,9.37452987,14.61394593
-0.22725038,-1.24763292,0.17272933

>  <Name>
2fcx_lig

>  <RI>
1.55453e+07

>  <Rbt.Current_Directory>
/home/itssahil/PROJECTS/Mol_Feturizer/New_Systems/rnas/2fcx

>  <Rbt.Executable>
rbdock ($Id: //depot/dev/client3/rdock/2013.1/src/exe/rbdock.cxx#4 $)

>  <Rbt.Library>
libRbt.so (2013.1, Build901 2013/11/27)

>  <Rbt.Parameter_File>
/export/apps/rDock/src/rDock_2013.1_src/data/scripts/dock_solv.prm

>  <Rbt.Receptor>
prm/pocket_docking_4.prm

>  <SCORE>
-8.07435

>  <SCORE.INTER>
-13.7772

>  <SCORE.INTER.CONST>
1

>  <SCORE.INTER.POLAR>
-1.95337

>  <SCORE.INTER.ROT>
3

>  <SCORE.INTER.SOLV>
12.4331

>  <SCORE.INTER.VDW>
-12.4179

>  <SCORE.INTER.norm>
-0.626236

>  <SCORE.INTRA>
5.70283

>  <SCORE.INTRA.DIHEDRAL>
9.07471

>  <SCORE.INTRA.DIHEDRAL.0>
4.88619

>  <SCORE.INTRA.POLAR>
0

>  <SCORE.INTRA.POLAR.0>
0

>  <SCORE.INTRA.REPUL>
0

>  <SCORE.INTRA.REPUL.0>
0

>  <SCORE.INTRA.SOLV>
3.17783

>  <SCORE.INTRA.SOLV.lig_0>
-73.8187

>  <SCORE.INTRA.VDW>
-0.423436

>  <SCORE.INTRA.VDW.0>
-1.32335

>  <SCORE.INTRA.norm>
0.25922

>  <SCORE.RESTR>
0

>  <SCORE.RESTR.CAVITY>
0

>  <SCORE.RESTR.norm>
0

>  <SCORE.SYSTEM>
0

>  <SCORE.SYSTEM.CONST>
0

>  <SCORE.SYSTEM.DIHEDRAL>
0

>  <SCORE.SYSTEM.SOLV>
0

>  <SCORE.SYSTEM.norm>
0

>  <SCORE.heavy>
22

>  <SCORE.norm>
-0.367016

>  <RMSD>
5.896

$$$$
2fcx_lig
 OpenBabel11021811433D
libRbt.so/2013.1/901 2013/11/27
 22 23  0  0  0  0  0  0  0  0999 V2000
   29.0515   10.9975   20.0411 N   0  0  0  0  0  0  0  0  0  0  0  0
   29.9645   12.1956   15.3714 N   0  0  0  0  0  0  0  0  0  0  0  0
   26.0986   12.6863   10.7464 N   0  0  0  0  0  0  0  0  0  0  0  0
   26.3166    9.1580   16.4417 O   0  0  0  0  0  0  0  0  0  0  0  0
   27.6429    9.5476   16.8086 C   0  0  2  0  0  0  0  0  0  0  0  0
   27.3624    7.5394   13.5548 N   0  0  0  0  0  0  0  0  0  0  0  0
   27.2942    8.9118   19.0960 O   0  0  0  0  0  0  0  0  0  0  0  0
   27.6651   10.0180   18.2648 C   0  0  1  0  0  0  0  0  0  0  0  0
   28.2855   10.0802   14.5207 O   0  0  0  0  0  0  0  0  0  0  0  0
   29.0622   10.5058   18.6555 C   0  0  1  0  0  0  0  0  0  0  0  0
   26.8048   11.1980   13.0890 O   0  0  0  0  0  0  0  0  0  0  0  0
   29.5181   11.6348   17.7251 C   0  0  0  0  0  0  0  0  0  0  0  0
   28.8980   10.5825   10.1022 O   0  0  0  0  0  0  0  0  0  0  0  0
   29.5322   11.1253   16.2811 C   0  0  1  0  0  0  0  0  0  0  0  0
   28.1503    7.9466   10.8257 O   0  0  0  0  0  0  0  0  0  0  0  0
   28.1521   10.6255   15.8438 C   0  0  2  0  0  0  0  0  0  0  0  0
   27.0376    9.9761   13.8137 C   0  0  1  0  0  0  0  0  0  0  0  0
   27.7899   11.4753   12.0734 C   0  0  2  0  0  0  0  0  0  0  0  0
   27.4450   12.7688   11.3320 C   0  0  0  0  0  0  0  0  0  0  0  0
   27.8558   10.3369   11.0516 C   0  0  2  0  0  0  0  0  0  0  0  0
   28.1507    9.0191   11.7698 C   0  0  1  0  0  0  0  0  0  0  0  0
   27.0802    8.7918   12.8405 C   0  0  1  0  0  0  0  0  0  0  0  0
  5  4  1  6  0  0  0
  5  8  1  0  0  0  0
  5 16  1  0  0  0  0
  8  7  1  1  0  0  0
  8 10  1  0  0  0  0
 10  1  1  1  0  0  0
 10 12  1  0  0  0  0
 11 18  1  0  0  0  0
 12 14  1  0  0  0  0
 14  2  1  6  0  0  0
 14 16  1  0  0  0  0
 16  9  1  6  0  0  0
 17  9  1  6  0  0  0
 17 11  1  0  0  0  0
 17 22  1  0  0  0  0
 18 19  1  6  0  0  0
 18 20  1  0  0  0  0
 19  3  1  0  0  0  0
 20 13  1  6  0  0  0
 20 21  1  0  0  0  0
 21 15  1  6  0  0  0
 21 22  1  0  0  0  0
 22  6  1  1  0  0  0
M  END
>  <CHROM.1>
78.82793026,89.73487277,-56.90016566,27.94770529,10.30357922,14.52994722
-1.24172681,-1.24478648,-1.23636339

>  <Name>
2fcx_lig

>  <RI>
3.23342e+07

>  <Rbt.Current_Directory>
/home/itssahil/PROJECTS/Mol_Feturizer/New_Systems/rnas/2fcx

>  <Rbt.Executable>
rbdock ($Id: //depot/dev/client3/rdock/2013.1/src/exe/rbdock.cxx#4 $)

>  <Rbt.Library>
libRbt.so (2013.1, Build901 2013/11/27)

>  <Rbt.Parameter_File>
/export/apps/rDock/src/rDock_2013.1_src/data/scripts/dock_solv.prm

>  <Rbt.Receptor>
prm/pocket_docking_5.prm

>  <SCORE>
-8.20086

>  <SCORE.INTER>
-9.07282

>  <SCORE.INTER.CONST>
1

>  <SCORE.INTER.POLAR>
-1.38178

>  <SCORE.INTER.ROT>
3

>  <SCORE.INTER.SOLV>
9.63068

>  <SCORE.INTER.VDW>
-10.2528

>  <SCORE.INTER.norm>
-0.412401

>  <SCORE.INTRA>
0.871962

>  <SCORE.INTRA.DIHEDRAL>
0.316033

>  <SCORE.INTRA.DIHEDRAL.0>
4.88619

>  <SCORE.INTRA.POLAR>
0

>  <SCORE.INTRA.POLAR.0>
0

>  <SCORE.INTRA.REPUL>
0

>  <SCORE.INTRA.REPUL.0>
0

>  <SCORE.INTRA.SOLV>
1.61596

>  <SCORE.INTRA.SOLV.lig_0>
-73.8187

>  <SCORE.INTRA.VDW>
-0.0940363

>  <SCORE.INTRA.VDW.0>
-1.32335

>  <SCORE.INTRA.norm>
0.0396347

>  <SCORE.RESTR>
0

>  <SCORE.RESTR.CAVITY>
0

>  <SCORE.RESTR.norm>
0

>  <SCORE.SYSTEM>
0

>  <SCORE.SYSTEM.CONST>
0

>  <SCORE.SYSTEM.DIHEDRAL>
0

>  <SCORE.SYSTEM.SOLV>
0

>  <SCORE.SYSTEM.norm>
0

>  <SCORE.heavy>
22

>  <SCORE.norm>
-0.372766

>  <RMSD>
5.900

$$$$
2fcx_lig
 OpenBabel11021811433D
libRbt.so/2013.1/901 2013/11/27
 22 23  0  0  0  0  0  0  0  0999 V2000
   27.2075    8.5340   18.8554 N   0  0  0  0  0  0  0  0  0  0  0  0
   29.5057   11.3555   15.5642 N   0  0  0  0  0  0  0  0  0  0  0  0
   24.4854    7.4772   12.5440 N   0  0  0  0  0  0  0  0  0  0  0  0
   25.0610    9.6199   14.6090 O   0  0  0  0  0  0  0  0  0  0  0  0
   26.3116    9.3171   15.2333 C   0  0  2  0  0  0  0  0  0  0  0  0
   30.0523   10.8514   12.1292 N   0  0  0  0  0  0  0  0  0  0  0  0
   25.2658    7.8612   16.8286 O   0  0  0  0  0  0  0  0  0  0  0  0
   26.0957    9.0236   16.7199 C   0  0  1  0  0  0  0  0  0  0  0  0
   27.6067   10.5882   13.6091 O   0  0  0  0  0  0  0  0  0  0  0  0
   27.4315    8.7660   17.4210 C   0  0  1  0  0  0  0  0  0  0  0  0
   27.2682    8.4427   12.7292 O   0  0  0  0  0  0  0  0  0  0  0  0
   28.3712    9.9639   17.2464 C   0  0  0  0  0  0  0  0  0  0  0  0
   26.1694    9.7362    9.4427 O   0  0  0  0  0  0  0  0  0  0  0  0
   28.6081   10.2072   15.7533 C   0  0  1  0  0  0  0  0  0  0  0  0
   28.8617   10.6162    9.5290 O   0  0  0  0  0  0  0  0  0  0  0  0
   27.2965   10.4707   15.0077 C   0  0  2  0  0  0  0  0  0  0  0  0
   28.2615    9.4286   13.0666 C   0  0  1  0  0  0  0  0  0  0  0  0
   26.3447    8.8658   11.7059 C   0  0  2  0  0  0  0  0  0  0  0  0
   25.3508    7.7470   11.3861 C   0  0  0  0  0  0  0  0  0  0  0  0
   27.0874    9.2334   10.4184 C   0  0  2  0  0  0  0  0  0  0  0  0
   28.1250   10.3171   10.7162 C   0  0  1  0  0  0  0  0  0  0  0  0
   29.0624    9.8121   11.8163 C   0  0  1  0  0  0  0  0  0  0  0  0
  5  4  1  1  0  0  0
  5  8  1  0  0  0  0
  5 16  1  0  0  0  0
  8  7  1  6  0  0  0
  8 10  1  0  0  0  0
 10  1  1  1  0  0  0
 10 12  1  0  0  0  0
 11 18  1  0  0  0  0
 12 14  1  0  0  0  0
 14  2  1  1  0  0  0
 14 16  1  0  0  0  0
 16  9  1  6  0  0  0
 17  9  1  6  0  0  0
 17 11  1  0  0  0  0
 17 22  1  0  0  0  0
 18 19  1  6  0  0  0
 18 20  1  0  0  0  0
 19  3  1  0  0  0  0
 20 13  1  6  0  0  0
 20 21  1  0  0  0  0
 21 15  1  6  0  0  0
 21 22  1  0  0  0  0
 22  6  1  1  0  0  0
M  END
>  <CHROM.1>
-62.63930321,82.89412353,65.84752396,27.23710181,9.46310012,13.70436316,-1.65541054
-0.55625289,-1.53559534

>  <Name>
2fcx_lig

>  <RI>
3.23342e+07

>  <Rbt.Current_Directory>
/home/itssahil/PROJECTS/Mol_Feturizer/New_Systems/rnas/2fcx

>  <Rbt.Executable>
rbdock ($Id: //depot/dev/client3/rdock/2013.1/src/exe/rbdock.cxx#4 $)

>  <Rbt.Library>
libRbt.so (2013.1, Build901 2013/11/27)

>  <Rbt.Parameter_File>
/export/apps/rDock/src/rDock_2013.1_src/data/scripts/dock_solv.prm

>  <Rbt.Receptor>
prm/pocket_docking_5.prm

>  <SCORE>
-6.35785

>  <SCORE.INTER>
-7.07611

>  <SCORE.INTER.CONST>
1

>  <SCORE.INTER.POLAR>
-0.84836

>  <SCORE.INTER.ROT>
3

>  <SCORE.INTER.SOLV>
13.5918

>  <SCORE.INTER.VDW>
-12.0201

>  <SCORE.INTER.norm>
-0.321641

>  <SCORE.INTRA>
0.718262

>  <SCORE.INTRA.DIHEDRAL>
-2.43345

>  <SCORE.INTRA.DIHEDRAL.0>
4.88619

>  <SCORE.INTRA.POLAR>
0

>  <SCORE.INTRA.POLAR.0>
0

>  <SCORE.INTRA.REPUL>
0

>  <SCORE.INTRA.REPUL.0>
0

>  <SCORE.INTRA.SOLV>
2.68465

>  <SCORE.INTRA.SOLV.lig_0>
-73.8187

>  <SCORE.INTRA.VDW>
0.592664

>  <SCORE.INTRA.VDW.0>
-1.32335

>  <SCORE.INTRA.norm>
0.0326483

>  <SCORE.RESTR>
0

>  <SCORE.RESTR.CAVITY>
0

>  <SCORE.RESTR.norm>
0

>  <SCORE.SYSTEM>
0

>  <SCORE.SYSTEM.CONST>
0

>  <SCORE.SYSTEM.DIHEDRAL>
0

>  <SCORE.SYSTEM.SOLV>
0

>  <SCORE.SYSTEM.norm>
0

>  <SCORE.heavy>
22

>  <SCORE.norm>
-0.288993

>  <RMSD>
5.914

$$$$
2fcx_lig
 OpenBabel11021811433D
libRbt.so/2013.1/901 2013/11/27
 22 23  0  0  0  0  0  0  0  0999 V2000
   28.9070    9.1965   19.2219 N   0  0  0  0  0  0  0  0  0  0  0  0
   28.2873    8.0258   14.4975 N   0  0  0  0  0  0  0  0  0  0  0  0
   26.9748    7.0802   11.7996 N   0  0  0  0  0  0  0  0  0  0  0  0
   30.3404   12.2677   15.7103 O   0  0  0  0  0  0  0  0  0  0  0  0
   29.3376   11.3191   16.0844 C   0  0  2  0  0  0  0  0  0  0  0  0
   30.3380   12.6489   12.2904 N   0  0  0  0  0  0  0  0  0  0  0  0
   29.5312   11.8938   18.4061 O   0  0  0  0  0  0  0  0  0  0  0  0
   29.6166   10.7925   17.4941 C   0  0  1  0  0  0  0  0  0  0  0  0
   28.8347   10.7099   13.7806 O   0  0  0  0  0  0  0  0  0  0  0  0
   28.5938    9.7235   17.8855 C   0  0  1  0  0  0  0  0  0  0  0  0
   29.0669    9.1506   12.0467 O   0  0  0  0  0  0  0  0  0  0  0  0
   28.6057    8.5711   16.8754 C   0  0  0  0  0  0  0  0  0  0  0  0
   26.5175   10.8037    9.9372 O   0  0  0  0  0  0  0  0  0  0  0  0
   28.2780    9.1165   15.4826 C   0  0  1  0  0  0  0  0  0  0  0  0
   28.5259   12.7984   10.0704 O   0  0  0  0  0  0  0  0  0  0  0  0
   29.2773   10.1919   15.0463 C   0  0  2  0  0  0  0  0  0  0  0  0
   29.6582   10.3035   12.6741 C   0  0  1  0  0  0  0  0  0  0  0  0
   27.7653    9.3951   11.4766 C   0  0  2  0  0  0  0  0  0  0  0  0
   27.2302    8.1300   10.8020 C   0  0  0  0  0  0  0  0  0  0  0  0
   27.8288   10.5100   10.4290 C   0  0  2  0  0  0  0  0  0  0  0  0
   28.4075   11.7765   11.0620 C   0  0  1  0  0  0  0  0  0  0  0  0
   29.7783   11.4465   11.6587 C   0  0  1  0  0  0  0  0  0  0  0  0
  5  4  1  6  0  0  0
  5  8  1  0  0  0  0
  5 16  1  0  0  0  0
  8  7  1  1  0  0  0
  8 10  1  0  0  0  0
 10  1  1  1  0  0  0
 10 12  1  0  0  0  0
 11 18  1  0  0  0  0
 12 14  1  0  0  0  0
 14  2  1  6  0  0  0
 14 16  1  0  0  0  0
 16  9  1  6  0  0  0
 17  9  1  1  0  0  0
 17 11  1  0  0  0  0
 17 22  1  0  0  0  0
 18 19  1  6  0  0  0
 18 20  1  0  0  0  0
 19  3  1  0  0  0  0
 20 13  1  1  0  0  0
 20 21  1  0  0  0  0
 21 15  1  6  0  0  0
 21 22  1  0  0  0  0
 22  6  1  1  0  0  0
M  END
>  <CHROM.1>
131.36396354,96.04103951,66.07423739,28.71254015,10.29836591,13.82865720
1.16708308,1.11238030,1.95868781

>  <Name>
2fcx_lig

>  <RI>
1.55453e+07

>  <Rbt.Current_Directory>
/home/itssahil/PROJECTS/Mol_Feturizer/New_Systems/rnas/2fcx

>  <Rbt.Executable>
rbdock ($Id: //depot/dev/client3/rdock/2013.1/src/exe/rbdock.cxx#4 $)

>  <Rbt.Library>
libRbt.so (2013.1, Build901 2013/11/27)

>  <Rbt.Parameter_File>
/export/apps/rDock/src/rDock_2013.1_src/data/scripts/dock_solv.prm

>  <Rbt.Receptor>
prm/pocket_docking_4.prm

>  <SCORE>
-7.13727

>  <SCORE.INTER>
-11.2171

>  <SCORE.INTER.CONST>
1

>  <SCORE.INTER.POLAR>
-1.60008

>  <SCORE.INTER.ROT>
3

>  <SCORE.INTER.SOLV>
11.679

>  <SCORE.INTER.VDW>
-11.6375

>  <SCORE.INTER.norm>
-0.509869

>  <SCORE.INTRA>
4.07986

>  <SCORE.INTRA.DIHEDRAL>
6.54963

>  <SCORE.INTRA.DIHEDRAL.0>
4.88619

>  <SCORE.INTRA.POLAR>
0

>  <SCORE.INTRA.POLAR.0>
0

>  <SCORE.INTRA.REPUL>
0

>  <SCORE.INTRA.REPUL.0>
0

>  <SCORE.INTRA.SOLV>
3.51383

>  <SCORE.INTRA.SOLV.lig_0>
-73.8187

>  <SCORE.INTRA.VDW>
-0.951876

>  <SCORE.INTRA.VDW.0>
-1.32335

>  <SCORE.INTRA.norm>
0.185448

>  <SCORE.RESTR>
0

>  <SCORE.RESTR.CAVITY>
0

>  <SCORE.RESTR.norm>
0

>  <SCORE.SYSTEM>
0

>  <SCORE.SYSTEM.CONST>
0

>  <SCORE.SYSTEM.DIHEDRAL>
0

>  <SCORE.SYSTEM.SOLV>
0

>  <SCORE.SYSTEM.norm>
0

>  <SCORE.heavy>
22

>  <SCORE.norm>
-0.324421

>  <RMSD>
5.918

$$$$
2fcx_lig
 OpenBabel11021811433D
libRbt.so/2013.1/901 2013/11/27
 22 23  0  0  0  0  0  0  0  0999 V2000
   28.8937    9.1367   19.2230 N   0  0  0  0  0  0  0  0  0  0  0  0
   28.2857    8.0343   14.4807 N   0  0  0  0  0  0  0  0  0  0  0  0
   26.9316    7.1223   11.8216 N   0  0  0  0  0  0  0  0  0  0  0  0
   30.3605   12.2462   15.7592 O   0  0  0  0  0  0  0  0  0  0  0  0
   29.3502   11.2990   16.1164 C   0  0  2  0  0  0  0  0  0  0  0  0
   30.3567   12.6636   12.3133 N   0  0  0  0  0  0  0  0  0  0  0  0
   29.5382   11.8409   18.4464 O   0  0  0  0  0  0  0  0  0  0  0  0
   29.6203   10.7515   17.5199 C   0  0  1  0  0  0  0  0  0  0  0  0
   28.8528   10.7243   13.8026 O   0  0  0  0  0  0  0  0  0  0  0  0
   28.5892    9.6838   17.8927 C   0  0  1  0  0  0  0  0  0  0  0  0
   29.0752    9.1695   12.0634 O   0  0  0  0  0  0  0  0  0  0  0  0
   28.5979    8.5452   16.8671 C   0  0  0  0  0  0  0  0  0  0  0  0
   26.5239   10.8357    9.9667 O   0  0  0  0  0  0  0  0  0  0  0  0
   28.2792    9.1115   15.4805 C   0  0  1  0  0  0  0  0  0  0  0  0
   28.5382   12.8245   10.0995 O   0  0  0  0  0  0  0  0  0  0  0  0
   29.2870   10.1864   15.0628 C   0  0  2  0  0  0  0  0  0  0  0  0
   29.6717   10.3189   12.6923 C   0  0  1  0  0  0  0  0  0  0  0  0
   27.7726    9.4192   11.4980 C   0  0  2  0  0  0  0  0  0  0  0  0
   27.2319    8.1576   10.8214 C   0  0  0  0  0  0  0  0  0  0  0  0
   27.8359   10.5370   10.4536 C   0  0  2  0  0  0  0  0  0  0  0  0
   28.4200   11.8000   11.0885 C   0  0  1  0  0  0  0  0  0  0  0  0
   29.7917   11.4645   11.6799 C   0  0  1  0  0  0  0  0  0  0  0  0
  5  4  1  6  0  0  0
  5  8  1  0  0  0  0
  5 16  1  0  0  0  0
  8  7  1  1  0  0  0
  8 10  1  0  0  0  0
 10  1  1  1  0  0  0
 10 12  1  0  0  0  0
 11 18  1  0  0  0  0
 12 14  1  0  0  0  0
 14  2  1  6  0  0  0
 14 16  1  0  0  0  0
 16  9  1  6  0  0  0
 17  9  1  1  0  0  0
 17 11  1  0  0  0  0
 17 22  1  0  0  0  0
 18 19  1  6  0  0  0
 18 20  1  0  0  0  0
 19  3  1  0  0  0  0
 20 13  1  1  0  0  0
 20 21  1  0  0  0  0
 21 15  1  6  0  0  0
 21 22  1  0  0  0  0
 22  6  1  1  0  0  0
M  END
>  <CHROM.1>
131.84417477,95.22777399,68.08788180,28.71742237,10.29942151,13.84812957
1.17640502,1.10409438,1.95947470

>  <Name>
2fcx_lig

>  <RI>
1.55453e+07

>  <Rbt.Current_Directory>
/home/itssahil/PROJECTS/Mol_Feturizer/New_Systems/rnas/2fcx

>  <Rbt.Executable>
rbdock ($Id: //depot/dev/client3/rdock/2013.1/src/exe/rbdock.cxx#4 $)

>  <Rbt.Library>
libRbt.so (2013.1, Build901 2013/11/27)

>  <Rbt.Parameter_File>
/export/apps/rDock/src/rDock_2013.1_src/data/scripts/dock_solv.prm

>  <Rbt.Receptor>
prm/pocket_docking_4.prm

>  <SCORE>
-7.184

>  <SCORE.INTER>
-11.2491

>  <SCORE.INTER.CONST>
1

>  <SCORE.INTER.POLAR>
-1.59906

>  <SCORE.INTER.ROT>
3

>  <SCORE.INTER.SOLV>
11.4921

>  <SCORE.INTER.VDW>
-11.5999

>  <SCORE.INTER.norm>
-0.511325

>  <SCORE.INTRA>
4.06514

>  <SCORE.INTRA.DIHEDRAL>
6.45089

>  <SCORE.INTRA.DIHEDRAL.0>
4.88619

>  <SCORE.INTRA.POLAR>
0

>  <SCORE.INTRA.POLAR.0>
0

>  <SCORE.INTRA.REPUL>
0

>  <SCORE.INTRA.REPUL.0>
0

>  <SCORE.INTRA.SOLV>
3.5649

>  <SCORE.INTRA.SOLV.lig_0>
-73.8187

>  <SCORE.INTRA.VDW>
-0.942753

>  <SCORE.INTRA.VDW.0>
-1.32335

>  <SCORE.INTRA.norm>
0.184779

>  <SCORE.RESTR>
0

>  <SCORE.RESTR.CAVITY>
0

>  <SCORE.RESTR.norm>
0

>  <SCORE.SYSTEM>
0

>  <SCORE.SYSTEM.CONST>
0

>  <SCORE.SYSTEM.DIHEDRAL>
0

>  <SCORE.SYSTEM.SOLV>
0

>  <SCORE.SYSTEM.norm>
0

>  <SCORE.heavy>
22

>  <SCORE.norm>
-0.326545

>  <RMSD>
5.926

$$$$
2fcx_lig
 OpenBabel11021811433D
libRbt.so/2013.1/901 2013/11/27
 22 23  0  0  0  0  0  0  0  0999 V2000
   30.3485    8.5018   19.3318 N   0  0  0  0  0  0  0  0  0  0  0  0
   29.1336   12.3387   16.5252 N   0  0  0  0  0  0  0  0  0  0  0  0
   31.3556   13.9707   11.7710 N   0  0  0  0  0  0  0  0  0  0  0  0
   29.1595    7.8511   14.6433 O   0  0  0  0  0  0  0  0  0  0  0  0
   29.8221    8.7240   15.5623 C   0  0  2  0  0  0  0  0  0  0  0  0
   26.5788   10.2081   13.9828 N   0  0  0  0  0  0  0  0  0  0  0  0
   30.5176    6.8893   16.9438 O   0  0  0  0  0  0  0  0  0  0  0  0
   29.7898    8.1229   16.9695 C   0  0  1  0  0  0  0  0  0  0  0  0
   29.3947   10.7121   14.2222 O   0  0  0  0  0  0  0  0  0  0  0  0
   30.4324    9.0752   17.9805 C   0  0  1  0  0  0  0  0  0  0  0  0
   29.1549   12.7600   13.1085 O   0  0  0  0  0  0  0  0  0  0  0  0
   29.7237   10.4339   17.9663 C   0  0  0  0  0  0  0  0  0  0  0  0
   28.8301   11.1564    9.7912 O   0  0  0  0  0  0  0  0  0  0  0  0
   29.8109   11.0348   16.5606 C   0  0  1  0  0  0  0  0  0  0  0  0
   26.5135   10.2007   11.1141 O   0  0  0  0  0  0  0  0  0  0  0  0
   29.1786   10.1151   15.5118 C   0  0  2  0  0  0  0  0  0  0  0  0
   28.4827   11.7835   13.9252 C   0  0  1  0  0  0  0  0  0  0  0  0
   29.5783   12.2601   11.8240 C   0  0  2  0  0  0  0  0  0  0  0  0
   30.2484   13.3705   11.0118 C   0  0  0  0  0  0  0  0  0  0  0  0
   28.3851   11.7306   11.0240 C   0  0  2  0  0  0  0  0  0  0  0  0
   27.6635   10.6511   11.8325 C   0  0  1  0  0  0  0  0  0  0  0  0
   27.2543   11.2403   13.1851 C   0  0  1  0  0  0  0  0  0  0  0  0
  5  4  1  6  0  0  0
  5  8  1  0  0  0  0
  5 16  1  0  0  0  0
  8  7  1  6  0  0  0
  8 10  1  0  0  0  0
 10  1  1  1  0  0  0
 10 12  1  0  0  0  0
 11 18  1  0  0  0  0
 12 14  1  0  0  0  0
 14  2  1  1  0  0  0
 14 16  1  0  0  0  0
 16  9  1  6  0  0  0
 17  9  1  6  0  0  0
 17 11  1  0  0  0  0
 17 22  1  0  0  0  0
 18 19  1  6  0  0  0
 18 20  1  0  0  0  0
 19  3  1  0  0  0  0
 20 13  1  6  0  0  0
 20 21  1  0  0  0  0
 21 15  1  6  0  0  0
 21 22  1  0  0  0  0
 22  6  1  1  0  0  0
M  END
>  <CHROM.1>
160.50025748,147.45803130,54.97085068,29.14762649,10.57516886,14.26570914
-1.26858088,-0.96066401,-0.83489475

>  <Name>
2fcx_lig

>  <RI>
3.23342e+07

>  <Rbt.Current_Directory>
/home/itssahil/PROJECTS/Mol_Feturizer/New_Systems/rnas/2fcx

>  <Rbt.Executable>
rbdock ($Id: //depot/dev/client3/rdock/2013.1/src/exe/rbdock.cxx#4 $)

>  <Rbt.Library>
libRbt.so (2013.1, Build901 2013/11/27)

>  <Rbt.Parameter_File>
/export/apps/rDock/src/rDock_2013.1_src/data/scripts/dock_solv.prm

>  <Rbt.Receptor>
prm/pocket_docking_5.prm

>  <SCORE>
-9.69744

>  <SCORE.INTER>
-11.5249

>  <SCORE.INTER.CONST>
1

>  <SCORE.INTER.POLAR>
-1.39013

>  <SCORE.INTER.ROT>
3

>  <SCORE.INTER.SOLV>
11.7144

>  <SCORE.INTER.VDW>
-12.5543

>  <SCORE.INTER.norm>
-0.523858

>  <SCORE.INTRA>
1.82744

>  <SCORE.INTRA.DIHEDRAL>
1.01085

>  <SCORE.INTRA.DIHEDRAL.0>
4.88619

>  <SCORE.INTRA.POLAR>
0

>  <SCORE.INTRA.POLAR.0>
0

>  <SCORE.INTRA.REPUL>
0

>  <SCORE.INTRA.REPUL.0>
0

>  <SCORE.INTRA.SOLV>
2.02533

>  <SCORE.INTRA.SOLV.lig_0>
-73.8187

>  <SCORE.INTRA.VDW>
0.309348

>  <SCORE.INTRA.VDW.0>
-1.32335

>  <SCORE.INTRA.norm>
0.0830653

>  <SCORE.RESTR>
0

>  <SCORE.RESTR.CAVITY>
0

>  <SCORE.RESTR.norm>
0

>  <SCORE.SYSTEM>
0

>  <SCORE.SYSTEM.CONST>
0

>  <SCORE.SYSTEM.DIHEDRAL>
0

>  <SCORE.SYSTEM.SOLV>
0

>  <SCORE.SYSTEM.norm>
0

>  <SCORE.heavy>
22

>  <SCORE.norm>
-0.440793

>  <RMSD>
5.926

$$$$
2fcx_lig
 OpenBabel11021811433D
libRbt.so/2013.1/901 2013/11/27
 22 23  0  0  0  0  0  0  0  0999 V2000
   30.2752    8.3770   19.4922 N   0  0  0  0  0  0  0  0  0  0  0  0
   29.0362   12.0930   16.5375 N   0  0  0  0  0  0  0  0  0  0  0  0
   29.0639   13.8751   10.5256 N   0  0  0  0  0  0  0  0  0  0  0  0
   29.0588    7.5318   14.8420 O   0  0  0  0  0  0  0  0  0  0  0  0
   29.7254    8.4428   15.7202 C   0  0  2  0  0  0  0  0  0  0  0  0
   26.4959    9.7489   14.0477 N   0  0  0  0  0  0  0  0  0  0  0  0
   30.4326    6.6677   17.1717 O   0  0  0  0  0  0  0  0  0  0  0  0
   29.7027    7.9001   17.1510 C   0  0  1  0  0  0  0  0  0  0  0  0
   29.2862   10.3733   14.3019 O   0  0  0  0  0  0  0  0  0  0  0  0
   30.3498    8.8944   18.1181 C   0  0  1  0  0  0  0  0  0  0  0  0
   28.9837   12.3605   13.0972 O   0  0  0  0  0  0  0  0  0  0  0  0
   29.6386   10.2502   18.0523 C   0  0  0  0  0  0  0  0  0  0  0  0
   28.7708   10.6044    9.8487 O   0  0  0  0  0  0  0  0  0  0  0  0
   29.7161   10.7928   16.6225 C   0  0  1  0  0  0  0  0  0  0  0  0
   26.4736    9.6158   11.1813 O   0  0  0  0  0  0  0  0  0  0  0  0
   29.0791    9.8297   15.6163 C   0  0  2  0  0  0  0  0  0  0  0  0
   28.3379   11.3942   13.9466 C   0  0  1  0  0  0  0  0  0  0  0  0
   29.4452   11.8230   11.8414 C   0  0  2  0  0  0  0  0  0  0  0  0
   30.0837   12.9231   10.9905 C   0  0  0  0  0  0  0  0  0  0  0  0
   28.2855   11.2130   11.0494 C   0  0  2  0  0  0  0  0  0  0  0  0
   27.5944   10.1417   11.8946 C   0  0  1  0  0  0  0  0  0  0  0  0
   27.1426   10.7717   13.2147 C   0  0  1  0  0  0  0  0  0  0  0  0
  5  4  1  6  0  0  0
  5  8  1  0  0  0  0
  5 16  1  0  0  0  0
  8  7  1  6  0  0  0
  8 10  1  0  0  0  0
 10  1  1  1  0  0  0
 10 12  1  0  0  0  0
 11 18  1  0  0  0  0
 12 14  1  0  0  0  0
 14  2  1  1  0  0  0
 14 16  1  0  0  0  0
 16  9  1  6  0  0  0
 17  9  1  6  0  0  0
 17 11  1  0  0  0  0
 17 22  1  0  0  0  0
 18 19  1  6  0  0  0
 18 20  1  0  0  0  0
 19  3  1  0  0  0  0
 20 13  1  6  0  0  0
 20 21  1  0  0  0  0
 21 15  1  6  0  0  0
 21 22  1  0  0  0  0
 22  6  1  1  0  0  0
M  END
>  <CHROM.1>
158.21637803,147.11817643,-69.22555751,28.94956383,10.23199703,14.28864172
-1.07634675,-1.13876719,-0.66590694

>  <Name>
2fcx_lig

>  <RI>
0

>  <Rbt.Current_Directory>
/home/itssahil/PROJECTS/Mol_Feturizer/New_Systems/rnas/2fcx

>  <Rbt.Executable>
rbdock ($Id: //depot/dev/client3/rdock/2013.1/src/exe/rbdock.cxx#4 $)

>  <Rbt.Library>
libRbt.so (2013.1, Build901 2013/11/27)

>  <Rbt.Parameter_File>
/export/apps/rDock/src/rDock_2013.1_src/data/scripts/dock_solv.prm

>  <Rbt.Receptor>
prm/pocket_docking_6.prm

>  <SCORE>
-10.2071

>  <SCORE.INTER>
-13.1189

>  <SCORE.INTER.CONST>
1

>  <SCORE.INTER.POLAR>
-1.73994

>  <SCORE.INTER.ROT>
3

>  <SCORE.INTER.SOLV>
10.9561

>  <SCORE.INTER.VDW>
-12.1981

>  <SCORE.INTER.norm>
-0.596312

>  <SCORE.INTRA>
2.9118

>  <SCORE.INTRA.DIHEDRAL>
1.66645

>  <SCORE.INTRA.DIHEDRAL.0>
4.88619

>  <SCORE.INTRA.POLAR>
0

>  <SCORE.INTRA.POLAR.0>
0

>  <SCORE.INTRA.REPUL>
0

>  <SCORE.INTRA.REPUL.0>
0

>  <SCORE.INTRA.SOLV>
3.5316

>  <SCORE.INTRA.SOLV.lig_0>
-73.8187

>  <SCORE.INTRA.VDW>
0.312773

>  <SCORE.INTRA.VDW.0>
-1.32335

>  <SCORE.INTRA.norm>
0.132354

>  <SCORE.RESTR>
0

>  <SCORE.RESTR.CAVITY>
0

>  <SCORE.RESTR.norm>
0

>  <SCORE.SYSTEM>
0

>  <SCORE.SYSTEM.CONST>
0

>  <SCORE.SYSTEM.DIHEDRAL>
0

>  <SCORE.SYSTEM.SOLV>
0

>  <SCORE.SYSTEM.norm>
0

>  <SCORE.heavy>
22

>  <SCORE.norm>
-0.463958

>  <RMSD>
5.927

$$$$
2fcx_lig
 OpenBabel11021811433D
libRbt.so/2013.1/901 2013/11/27
 22 23  0  0  0  0  0  0  0  0999 V2000
   26.3066    7.5740    9.4195 N   0  0  0  0  0  0  0  0  0  0  0  0
   28.9416   11.6485   10.1476 N   0  0  0  0  0  0  0  0  0  0  0  0
   32.3964   13.9808   11.8689 N   0  0  0  0  0  0  0  0  0  0  0  0
   28.6702    8.2638   13.6333 O   0  0  0  0  0  0  0  0  0  0  0  0
   27.9346    8.9164   12.5948 C   0  0  2  0  0  0  0  0  0  0  0  0
   28.6428   10.0849   15.5813 N   0  0  0  0  0  0  0  0  0  0  0  0
   26.5554    6.9861   12.2343 O   0  0  0  0  0  0  0  0  0  0  0  0
   27.4505    7.8867   11.5712 C   0  0  1  0  0  0  0  0  0  0  0  0
   29.0768   11.0440   12.9106 O   0  0  0  0  0  0  0  0  0  0  0  0
   26.7211    8.5739   10.4145 C   0  0  1  0  0  0  0  0  0  0  0  0
   31.2828   11.6271   13.4447 O   0  0  0  0  0  0  0  0  0  0  0  0
   27.6318    9.6058    9.7407 C   0  0  0  0  0  0  0  0  0  0  0  0
   30.2538   14.6530   15.3065 O   0  0  0  0  0  0  0  0  0  0  0  0
   28.0639   10.6499   10.7742 C   0  0  1  0  0  0  0  0  0  0  0  0
   29.1114   12.5969   16.8868 O   0  0  0  0  0  0  0  0  0  0  0  0
   28.8003   10.0078   11.9536 C   0  0  2  0  0  0  0  0  0  0  0  0
   30.1901   10.7487   13.7714 C   0  0  1  0  0  0  0  0  0  0  0  0
   30.9992   13.0238   13.6632 C   0  0  2  0  0  0  0  0  0  0  0  0
   32.2232   13.8779   13.3255 C   0  0  0  0  0  0  0  0  0  0  0  0
   30.6194   13.2817   15.1238 C   0  0  2  0  0  0  0  0  0  0  0  0
   29.4270   12.4036   15.5068 C   0  0  1  0  0  0  0  0  0  0  0  0
   29.7872   10.9400   15.2387 C   0  0  1  0  0  0  0  0  0  0  0  0
  5  4  1  1  0  0  0
  5  8  1  0  0  0  0
  5 16  1  0  0  0  0
  8  7  1  1  0  0  0
  8 10  1  0  0  0  0
 10  1  1  6  0  0  0
 10 12  1  0  0  0  0
 11 18  1  0  0  0  0
 12 14  1  0  0  0  0
 14  2  1  6  0  0  0
 14 16  1  0  0  0  0
 16  9  1  1  0  0  0
 17  9  1  6  0  0  0
 17 11  1  0  0  0  0
 17 22  1  0  0  0  0
 18 19  1  1  0  0  0
 18 20  1  0  0  0  0
 19  3  1  0  0  0  0
 20 13  1  6  0  0  0
 20 21  1  0  0  0  0
 21 15  1  1  0  0  0
 21 22  1  0  0  0  0
 22  6  1  6  0  0  0
M  END
>  <CHROM.1>
83.56422304,110.56112003,74.89283846,29.14557019,10.84250205,12.99898674
-2.57851200,0.93237158,1.54456609

>  <Name>
2fcx_lig

>  <RI>
0

>  <Rbt.Current_Directory>
/home/itssahil/PROJECTS/Mol_Feturizer/New_Systems/rnas/2fcx

>  <Rbt.Executable>
rbdock ($Id: //depot/dev/client3/rdock/2013.1/src/exe/rbdock.cxx#4 $)

>  <Rbt.Library>
libRbt.so (2013.1, Build901 2013/11/27)

>  <Rbt.Parameter_File>
/export/apps/rDock/src/rDock_2013.1_src/data/scripts/dock_solv.prm

>  <Rbt.Receptor>
prm/pocket_docking_6.prm

>  <SCORE>
-6.10386

>  <SCORE.INTER>
-8.76919

>  <SCORE.INTER.CONST>
1

>  <SCORE.INTER.POLAR>
-1.13592

>  <SCORE.INTER.ROT>
3

>  <SCORE.INTER.SOLV>
12.1801

>  <SCORE.INTER.VDW>
-11.7198

>  <SCORE.INTER.norm>
-0.3986

>  <SCORE.INTRA>
2.66533

>  <SCORE.INTRA.DIHEDRAL>
5.05193

>  <SCORE.INTRA.DIHEDRAL.0>
4.88619

>  <SCORE.INTRA.POLAR>
0

>  <SCORE.INTRA.POLAR.0>
0

>  <SCORE.INTRA.REPUL>
0

>  <SCORE.INTRA.REPUL.0>
0

>  <SCORE.INTRA.SOLV>
0.888295

>  <SCORE.INTRA.SOLV.lig_0>
-73.8187

>  <SCORE.INTRA.VDW>
-0.304783

>  <SCORE.INTRA.VDW.0>
-1.32335

>  <SCORE.INTRA.norm>
0.121151

>  <SCORE.RESTR>
0

>  <SCORE.RESTR.CAVITY>
0

>  <SCORE.RESTR.norm>
0

>  <SCORE.SYSTEM>
0

>  <SCORE.SYSTEM.CONST>
0

>  <SCORE.SYSTEM.DIHEDRAL>
0

>  <SCORE.SYSTEM.SOLV>
0

>  <SCORE.SYSTEM.norm>
0

>  <SCORE.heavy>
22

>  <SCORE.norm>
-0.277448

>  <RMSD>
5.936

$$$$
2fcx_lig
 OpenBabel11021811433D
libRbt.so/2013.1/901 2013/11/27
 22 23  0  0  0  0  0  0  0  0999 V2000
   30.2311    8.5852   19.3121 N   0  0  0  0  0  0  0  0  0  0  0  0
   29.0858   12.4406   16.5016 N   0  0  0  0  0  0  0  0  0  0  0  0
   31.4070   14.0507   11.7213 N   0  0  0  0  0  0  0  0  0  0  0  0
   29.1680    7.9667   14.5891 O   0  0  0  0  0  0  0  0  0  0  0  0
   29.8047    8.8338   15.5316 C   0  0  2  0  0  0  0  0  0  0  0  0
   26.5922   10.3437   13.9461 N   0  0  0  0  0  0  0  0  0  0  0  0
   30.4658    6.9901   16.9180 O   0  0  0  0  0  0  0  0  0  0  0  0
   29.7359    8.2225   16.9331 C   0  0  1  0  0  0  0  0  0  0  0  0
   29.4103   10.8309   14.1948 O   0  0  0  0  0  0  0  0  0  0  0  0
   30.3501    9.1684   17.9677 C   0  0  1  0  0  0  0  0  0  0  0  0
   29.1901   12.8694   13.0601 O   0  0  0  0  0  0  0  0  0  0  0  0
   29.6402   10.5263   17.9443 C   0  0  0  0  0  0  0  0  0  0  0  0
   28.8710   11.2358    9.7569 O   0  0  0  0  0  0  0  0  0  0  0  0
   29.7638   11.1374   16.5458 C   0  0  1  0  0  0  0  0  0  0  0  0
   26.5412   10.3089   11.0773 O   0  0  0  0  0  0  0  0  0  0  0  0
   29.1609   10.2244   15.4739 C   0  0  2  0  0  0  0  0  0  0  0  0
   28.5072   11.9055   13.8828 C   0  0  1  0  0  0  0  0  0  0  0  0
   29.6165   12.3542   11.7827 C   0  0  2  0  0  0  0  0  0  0  0  0
   30.2982   13.4521   10.9632 C   0  0  0  0  0  0  0  0  0  0  0  0
   28.4237   11.8250   10.9818 C   0  0  2  0  0  0  0  0  0  0  0  0
   27.6907   10.7584   11.7971 C   0  0  1  0  0  0  0  0  0  0  0  0
   27.2788   11.3635   13.1418 C   0  0  1  0  0  0  0  0  0  0  0  0
  5  4  1  6  0  0  0
  5  8  1  0  0  0  0
  5 16  1  0  0  0  0
  8  7  1  6  0  0  0
  8 10  1  0  0  0  0
 10  1  1  1  0  0  0
 10 12  1  0  0  0  0
 11 18  1  0  0  0  0
 12 14  1  0  0  0  0
 14  2  1  1  0  0  0
 14 16  1  0  0  0  0
 16  9  1  6  0  0  0
 17  9  1  6  0  0  0
 17 11  1  0  0  0  0
 17 22  1  0  0  0  0
 18 19  1  6  0  0  0
 18 20  1  0  0  0  0
 19  3  1  0  0  0  0
 20 13  1  6  0  0  0
 20 21  1  0  0  0  0
 21 15  1  6  0  0  0
 21 22  1  0  0  0  0
 22  6  1  1  0  0  0
M  END
>  <CHROM.1>
160.64882929,149.02850413,55.05348308,29.14275447,10.67803375,14.23081728
-1.29574069,-0.97061177,-0.85699615

>  <Name>
2fcx_lig

>  <RI>
4.08374e+07

>  <Rbt.Current_Directory>
/home/itssahil/PROJECTS/Mol_Feturizer/New_Systems/rnas/2fcx

>  <Rbt.Executable>
rbdock ($Id: //depot/dev/client3/rdock/2013.1/src/exe/rbdock.cxx#4 $)

>  <Rbt.Library>
libRbt.so (2013.1, Build901 2013/11/27)

>  <Rbt.Parameter_File>
/export/apps/rDock/src/rDock_2013.1_src/data/scripts/dock_solv.prm

>  <Rbt.Receptor>
prm/pocket_docking_7.prm

>  <SCORE>
-9.76141

>  <SCORE.INTER>
-11.5079

>  <SCORE.INTER.CONST>
1

>  <SCORE.INTER.POLAR>
-1.38678

>  <SCORE.INTER.ROT>
3

>  <SCORE.INTER.SOLV>
11.8517

>  <SCORE.INTER.VDW>
-12.5999

>  <SCORE.INTER.norm>
-0.523086

>  <SCORE.INTRA>
1.74648

>  <SCORE.INTRA.DIHEDRAL>
0.689475

>  <SCORE.INTRA.DIHEDRAL.0>
4.88619

>  <SCORE.INTRA.POLAR>
0

>  <SCORE.INTRA.POLAR.0>
0

>  <SCORE.INTRA.REPUL>
0

>  <SCORE.INTRA.REPUL.0>
0

>  <SCORE.INTRA.SOLV>
2.11758

>  <SCORE.INTRA.SOLV.lig_0>
-73.8187

>  <SCORE.INTRA.VDW>
0.342954

>  <SCORE.INTRA.VDW.0>
-1.32335

>  <SCORE.INTRA.norm>
0.0793856

>  <SCORE.RESTR>
0

>  <SCORE.RESTR.CAVITY>
0

>  <SCORE.RESTR.norm>
0

>  <SCORE.SYSTEM>
0

>  <SCORE.SYSTEM.CONST>
0

>  <SCORE.SYSTEM.DIHEDRAL>
0

>  <SCORE.SYSTEM.SOLV>
0

>  <SCORE.SYSTEM.norm>
0

>  <SCORE.heavy>
22

>  <SCORE.norm>
-0.4437

>  <RMSD>
5.956

$$$$
2fcx_lig
 OpenBabel11021811433D
libRbt.so/2013.1/901 2013/11/27
 22 23  0  0  0  0  0  0  0  0999 V2000
   28.7755    7.0576   19.0105 N   0  0  0  0  0  0  0  0  0  0  0  0
   27.6687    7.2630   14.2348 N   0  0  0  0  0  0  0  0  0  0  0  0
   27.9893    7.2618    9.8798 N   0  0  0  0  0  0  0  0  0  0  0  0
   30.3933   10.7498   16.2593 O   0  0  0  0  0  0  0  0  0  0  0  0
   29.2918    9.8657   16.4840 C   0  0  2  0  0  0  0  0  0  0  0  0
   29.4725   12.2944   12.7855 N   0  0  0  0  0  0  0  0  0  0  0  0
   29.7262    9.7777   18.8423 O   0  0  0  0  0  0  0  0  0  0  0  0
   29.5880    8.9549   17.6779 C   0  0  1  0  0  0  0  0  0  0  0  0
   28.5484    9.9536   14.1665 O   0  0  0  0  0  0  0  0  0  0  0  0
   28.4506    7.9534   17.8909 C   0  0  1  0  0  0  0  0  0  0  0  0
   28.8703    8.6534   12.2436 O   0  0  0  0  0  0  0  0  0  0  0  0
   28.2258    7.1168   16.6268 C   0  0  0  0  0  0  0  0  0  0  0  0
   25.8263    9.9589   10.5972 O   0  0  0  0  0  0  0  0  0  0  0  0
   27.8853    8.0469   15.4590 C   0  0  1  0  0  0  0  0  0  0  0  0
   27.4203   12.2947   10.7798 O   0  0  0  0  0  0  0  0  0  0  0  0
   28.9974    9.0693   15.2069 C   0  0  2  0  0  0  0  0  0  0  0  0
   29.3002    9.8338   12.9466 C   0  0  1  0  0  0  0  0  0  0  0  0
   27.4889    8.6855   11.8319 C   0  0  2  0  0  0  0  0  0  0  0  0
   27.1296    7.4118   11.0634 C   0  0  0  0  0  0  0  0  0  0  0  0
   27.2175    9.8886   10.9247 C   0  0  2  0  0  0  0  0  0  0  0  0
   27.6141   11.1766   11.6481 C   0  0  1  0  0  0  0  0  0  0  0  0
   29.0823   11.0725   12.0692 C   0  0  1  0  0  0  0  0  0  0  0  0
  5  4  1  6  0  0  0
  5  8  1  0  0  0  0
  5 16  1  0  0  0  0
  8  7  1  1  0  0  0
  8 10  1  0  0  0  0
 10  1  1  1  0  0  0
 10 12  1  0  0  0  0
 11 18  1  0  0  0  0
 12 14  1  0  0  0  0
 14  2  1  6  0  0  0
 14 16  1  0  0  0  0
 16  9  1  6  0  0  0
 17  9  1  1  0  0  0
 17 11  1  0  0  0  0
 17 22  1  0  0  0  0
 18 19  1  6  0  0  0
 18 20  1  0  0  0  0
 19  3  1  0  0  0  0
 20 13  1  1  0  0  0
 20 21  1  0  0  0  0
 21 15  1  6  0  0  0
 21 22  1  0  0  0  0
 22  6  1  1  0  0  0
M  END
>  <CHROM.1>
126.50870252,77.46492603,-58.69663735,28.40679423,9.31898890,14.01442517
0.97898856,1.14741086,2.30834453

>  <Name>
2fcx_lig

>  <RI>
3.23342e+07

>  <Rbt.Current_Directory>
/home/itssahil/PROJECTS/Mol_Feturizer/New_Systems/rnas/2fcx

>  <Rbt.Executable>
rbdock ($Id: //depot/dev/client3/rdock/2013.1/src/exe/rbdock.cxx#4 $)

>  <Rbt.Library>
libRbt.so (2013.1, Build901 2013/11/27)

>  <Rbt.Parameter_File>
/export/apps/rDock/src/rDock_2013.1_src/data/scripts/dock_solv.prm

>  <Rbt.Receptor>
prm/pocket_docking_5.prm

>  <SCORE>
-8.75163

>  <SCORE.INTER>
-12.0036

>  <SCORE.INTER.CONST>
1

>  <SCORE.INTER.POLAR>
-1.79596

>  <SCORE.INTER.ROT>
3

>  <SCORE.INTER.SOLV>
11.5867

>  <SCORE.INTER.VDW>
-11.478

>  <SCORE.INTER.norm>
-0.545616

>  <SCORE.INTRA>
3.25192

>  <SCORE.INTRA.DIHEDRAL>
3.52259

>  <SCORE.INTRA.DIHEDRAL.0>
4.88619

>  <SCORE.INTRA.POLAR>
0

>  <SCORE.INTRA.POLAR.0>
0

>  <SCORE.INTRA.REPUL>
0

>  <SCORE.INTRA.REPUL.0>
0

>  <SCORE.INTRA.SOLV>
3.72795

>  <SCORE.INTRA.SOLV.lig_0>
-73.8187

>  <SCORE.INTRA.VDW>
-0.373344

>  <SCORE.INTRA.VDW.0>
-1.32335

>  <SCORE.INTRA.norm>
0.147815

>  <SCORE.RESTR>
0

>  <SCORE.RESTR.CAVITY>
0

>  <SCORE.RESTR.norm>
0

>  <SCORE.SYSTEM>
0

>  <SCORE.SYSTEM.CONST>
0

>  <SCORE.SYSTEM.DIHEDRAL>
0

>  <SCORE.SYSTEM.SOLV>
0

>  <SCORE.SYSTEM.norm>
0

>  <SCORE.heavy>
22

>  <SCORE.norm>
-0.397801

>  <RMSD>
5.964

$$$$
2fcx_lig
 OpenBabel11021811433D
libRbt.so/2013.1/901 2013/11/27
 22 23  0  0  0  0  0  0  0  0999 V2000
   28.9278    9.1283   19.1535 N   0  0  0  0  0  0  0  0  0  0  0  0
   28.3487    8.0991   14.3911 N   0  0  0  0  0  0  0  0  0  0  0  0
   27.9365    7.6144    9.8977 N   0  0  0  0  0  0  0  0  0  0  0  0
   30.3848   12.3056   15.7475 O   0  0  0  0  0  0  0  0  0  0  0  0
   29.3805   11.3448   16.0847 C   0  0  2  0  0  0  0  0  0  0  0  0
   30.3426   12.6473   12.0998 N   0  0  0  0  0  0  0  0  0  0  0  0
   29.5543   11.8498   18.4241 O   0  0  0  0  0  0  0  0  0  0  0  0
   29.6489   10.7765   17.4802 C   0  0  1  0  0  0  0  0  0  0  0  0
   28.8974   10.8043   13.7597 O   0  0  0  0  0  0  0  0  0  0  0  0
   28.6247    9.6947   17.8310 C   0  0  1  0  0  0  0  0  0  0  0  0
   29.0138    9.1620   12.0920 O   0  0  0  0  0  0  0  0  0  0  0  0
   28.6467    8.5733   16.7869 C   0  0  0  0  0  0  0  0  0  0  0  0
   26.3752   10.7545   10.0468 O   0  0  0  0  0  0  0  0  0  0  0  0
   28.3294    9.1597   15.4085 C   0  0  1  0  0  0  0  0  0  0  0  0
   28.4141   12.7212    9.9762 O   0  0  0  0  0  0  0  0  0  0  0  0
   29.3305   10.2491   15.0128 C   0  0  2  0  0  0  0  0  0  0  0  0
   29.6538   10.3335   12.6309 C   0  0  1  0  0  0  0  0  0  0  0  0
   27.6864    9.4001   11.5819 C   0  0  2  0  0  0  0  0  0  0  0  0
   27.0985    8.1134   10.9982 C   0  0  0  0  0  0  0  0  0  0  0  0
   27.7074   10.4635   10.4805 C   0  0  2  0  0  0  0  0  0  0  0  0
   28.3365   11.7489   11.0204 C   0  0  1  0  0  0  0  0  0  0  0  0
   29.7333   11.4256   11.5572 C   0  0  1  0  0  0  0  0  0  0  0  0
  5  4  1  6  0  0  0
  5  8  1  0  0  0  0
  5 16  1  0  0  0  0
  8  7  1  1  0  0  0
  8 10  1  0  0  0  0
 10  1  1  1  0  0  0
 10 12  1  0  0  0  0
 11 18  1  0  0  0  0
 12 14  1  0  0  0  0
 14  2  1  6  0  0  0
 14 16  1  0  0  0  0
 16  9  1  6  0  0  0
 17  9  1  1  0  0  0
 17 11  1  0  0  0  0
 17 22  1  0  0  0  0
 18 19  1  6  0  0  0
 18 20  1  0  0  0  0
 19  3  1  0  0  0  0
 20 13  1  1  0  0  0
 20 21  1  0  0  0  0
 21 15  1  6  0  0  0
 21 22  1  0  0  0  0
 22  6  1  1  0  0  0
M  END
>  <CHROM.1>
136.86100674,91.03264336,-59.95982687,28.74203169,10.32149947,13.72748088
1.12272980,1.14755609,1.98280840

>  <Name>
2fcx_lig

>  <RI>
3.23342e+07

>  <Rbt.Current_Directory>
/home/itssahil/PROJECTS/Mol_Feturizer/New_Systems/rnas/2fcx

>  <Rbt.Executable>
rbdock ($Id: //depot/dev/client3/rdock/2013.1/src/exe/rbdock.cxx#4 $)

>  <Rbt.Library>
libRbt.so (2013.1, Build901 2013/11/27)

>  <Rbt.Parameter_File>
/export/apps/rDock/src/rDock_2013.1_src/data/scripts/dock_solv.prm

>  <Rbt.Receptor>
prm/pocket_docking_5.prm

>  <SCORE>
-10.9996

>  <SCORE.INTER>
-14.6468

>  <SCORE.INTER.CONST>
1

>  <SCORE.INTER.POLAR>
-2.35896

>  <SCORE.INTER.ROT>
3

>  <SCORE.INTER.SOLV>
12.0416

>  <SCORE.INTER.VDW>
-11.5152

>  <SCORE.INTER.norm>
-0.665765

>  <SCORE.INTRA>
3.64721

>  <SCORE.INTRA.DIHEDRAL>
4.80058

>  <SCORE.INTRA.DIHEDRAL.0>
4.88619

>  <SCORE.INTRA.POLAR>
0

>  <SCORE.INTRA.POLAR.0>
0

>  <SCORE.INTRA.REPUL>
0

>  <SCORE.INTRA.REPUL.0>
0

>  <SCORE.INTRA.SOLV>
3.55445

>  <SCORE.INTRA.SOLV.lig_0>
-73.8187

>  <SCORE.INTRA.VDW>
-0.530301

>  <SCORE.INTRA.VDW.0>
-1.32335

>  <SCORE.INTRA.norm>
0.165782

>  <SCORE.RESTR>
0

>  <SCORE.RESTR.CAVITY>
0

>  <SCORE.RESTR.norm>
0

>  <SCORE.SYSTEM>
0

>  <SCORE.SYSTEM.CONST>
0

>  <SCORE.SYSTEM.DIHEDRAL>
0

>  <SCORE.SYSTEM.SOLV>
0

>  <SCORE.SYSTEM.norm>
0

>  <SCORE.heavy>
22

>  <SCORE.norm>
-0.499983

>  <RMSD>
5.966

$$$$
2fcx_lig
 OpenBabel11021811433D
libRbt.so/2013.1/901 2013/11/27
 22 23  0  0  0  0  0  0  0  0999 V2000
   28.9490    9.0994   19.1633 N   0  0  0  0  0  0  0  0  0  0  0  0
   28.3089    8.0342   14.4167 N   0  0  0  0  0  0  0  0  0  0  0  0
   28.0092    7.5763    9.8586 N   0  0  0  0  0  0  0  0  0  0  0  0
   30.4195   12.2227   15.7135 O   0  0  0  0  0  0  0  0  0  0  0  0
   29.4045   11.2801   16.0694 C   0  0  2  0  0  0  0  0  0  0  0  0
   30.3652   12.5936   12.1494 N   0  0  0  0  0  0  0  0  0  0  0  0
   29.6082   11.8044   18.4021 O   0  0  0  0  0  0  0  0  0  0  0  0
   29.6780   10.7210   17.4676 C   0  0  1  0  0  0  0  0  0  0  0  0
   28.8912   10.7249   13.7543 O   0  0  0  0  0  0  0  0  0  0  0  0
   28.6414    9.6579   17.8385 C   0  0  1  0  0  0  0  0  0  0  0  0
   29.0289    9.1123   12.0595 O   0  0  0  0  0  0  0  0  0  0  0  0
   28.6369    8.5264   16.8050 C   0  0  0  0  0  0  0  0  0  0  0  0
   26.4248   10.7477   10.0038 O   0  0  0  0  0  0  0  0  0  0  0  0
   28.3150    9.1045   15.4240 C   0  0  1  0  0  0  0  0  0  0  0  0
   28.4689   12.7102    9.9989 O   0  0  0  0  0  0  0  0  0  0  0  0
   29.3282   10.1753   15.0085 C   0  0  2  0  0  0  0  0  0  0  0  0
   29.6633   10.2725   12.6287 C   0  0  1  0  0  0  0  0  0  0  0  0
   27.7098    9.3628   11.5339 C   0  0  2  0  0  0  0  0  0  0  0  0
   27.1279    8.0882   10.9186 C   0  0  0  0  0  0  0  0  0  0  0  0
   27.7497   10.4456   10.4522 C   0  0  2  0  0  0  0  0  0  0  0  0
   28.3735   11.7197   11.0242 C   0  0  1  0  0  0  0  0  0  0  0  0
   29.7614   11.3833   11.5760 C   0  0  1  0  0  0  0  0  0  0  0  0
  5  4  1  6  0  0  0
  5  8  1  0  0  0  0
  5 16  1  0  0  0  0
  8  7  1  1  0  0  0
  8 10  1  0  0  0  0
 10  1  1  1  0  0  0
 10 12  1  0  0  0  0
 11 18  1  0  0  0  0
 12 14  1  0  0  0  0
 14  2  1  6  0  0  0
 14 16  1  0  0  0  0
 16  9  1  6  0  0  0
 17  9  1  1  0  0  0
 17 11  1  0  0  0  0
 17 22  1  0  0  0  0
 18 19  1  6  0  0  0
 18 20  1  0  0  0  0
 19  3  1  0  0  0  0
 20 13  1  1  0  0  0
 20 21  1  0  0  0  0
 21 15  1  6  0  0  0
 21 22  1  0  0  0  0
 22  6  1  1  0  0  0
M  END
>  <CHROM.1>
134.57291276,92.67483535,-57.66022378,28.76490565,10.27579445,13.71813541
1.13016265,1.14737788,1.97829987

>  <Name>
2fcx_lig

>  <RI>
0

>  <Rbt.Current_Directory>
/home/itssahil/PROJECTS/Mol_Feturizer/New_Systems/rnas/2fcx

>  <Rbt.Executable>
rbdock ($Id: //depot/dev/client3/rdock/2013.1/src/exe/rbdock.cxx#4 $)

>  <Rbt.Library>
libRbt.so (2013.1, Build901 2013/11/27)

>  <Rbt.Parameter_File>
/export/apps/rDock/src/rDock_2013.1_src/data/scripts/dock_solv.prm

>  <Rbt.Receptor>
prm/pocket_docking_6.prm

>  <SCORE>
-10.9434

>  <SCORE.INTER>
-14.7187

>  <SCORE.INTER.CONST>
1

>  <SCORE.INTER.POLAR>
-2.4114

>  <SCORE.INTER.ROT>
3

>  <SCORE.INTER.SOLV>
12.429

>  <SCORE.INTER.VDW>
-11.5174

>  <SCORE.INTER.norm>
-0.66903

>  <SCORE.INTRA>
3.77522

>  <SCORE.INTRA.DIHEDRAL>
5.44289

>  <SCORE.INTRA.DIHEDRAL.0>
4.88619

>  <SCORE.INTRA.POLAR>
0

>  <SCORE.INTRA.POLAR.0>
0

>  <SCORE.INTRA.REPUL>
0

>  <SCORE.INTRA.REPUL.0>
0

>  <SCORE.INTRA.SOLV>
3.4772

>  <SCORE.INTRA.SOLV.lig_0>
-73.8187

>  <SCORE.INTRA.VDW>
-0.684822

>  <SCORE.INTRA.VDW.0>
-1.32335

>  <SCORE.INTRA.norm>
0.171601

>  <SCORE.RESTR>
0

>  <SCORE.RESTR.CAVITY>
0

>  <SCORE.RESTR.norm>
0

>  <SCORE.SYSTEM>
0

>  <SCORE.SYSTEM.CONST>
0

>  <SCORE.SYSTEM.DIHEDRAL>
0

>  <SCORE.SYSTEM.SOLV>
0

>  <SCORE.SYSTEM.norm>
0

>  <SCORE.heavy>
22

>  <SCORE.norm>
-0.497429

>  <RMSD>
5.975

$$$$
2fcx_lig
 OpenBabel11021811433D
libRbt.so/2013.1/901 2013/11/27
 22 23  0  0  0  0  0  0  0  0999 V2000
   28.9128    9.1307   19.1777 N   0  0  0  0  0  0  0  0  0  0  0  0
   28.2819    8.0582   14.4316 N   0  0  0  0  0  0  0  0  0  0  0  0
   27.8026    7.6265    9.8993 N   0  0  0  0  0  0  0  0  0  0  0  0
   30.3427   12.2718   15.7270 O   0  0  0  0  0  0  0  0  0  0  0  0
   29.3395   11.3169   16.0836 C   0  0  2  0  0  0  0  0  0  0  0  0
   30.3586   12.5653   12.1464 N   0  0  0  0  0  0  0  0  0  0  0  0
   29.5387   11.8435   18.4162 O   0  0  0  0  0  0  0  0  0  0  0  0
   29.6208   10.7611   17.4816 C   0  0  1  0  0  0  0  0  0  0  0  0
   28.8311   10.7558   13.7689 O   0  0  0  0  0  0  0  0  0  0  0  0
   28.5975    9.6855   17.8532 C   0  0  1  0  0  0  0  0  0  0  0  0
   28.8921    9.1364   12.0761 O   0  0  0  0  0  0  0  0  0  0  0  0
   28.6059    8.5541   16.8196 C   0  0  0  0  0  0  0  0  0  0  0  0
   26.3316   10.8647   10.0419 O   0  0  0  0  0  0  0  0  0  0  0  0
   28.2759    9.1283   15.4389 C   0  0  1  0  0  0  0  0  0  0  0  0
   28.4476   12.7493   10.0137 O   0  0  0  0  0  0  0  0  0  0  0  0
   29.2757   10.2113   15.0227 C   0  0  2  0  0  0  0  0  0  0  0  0
   29.5749   10.2728   12.6370 C   0  0  1  0  0  0  0  0  0  0  0  0
   27.5784    9.4352   11.5625 C   0  0  2  0  0  0  0  0  0  0  0  0
   26.9433    8.1823   10.9553 C   0  0  0  0  0  0  0  0  0  0  0  0
   27.6484   10.5140   10.4783 C   0  0  2  0  0  0  0  0  0  0  0  0
   28.3249   11.7647   11.0418 C   0  0  1  0  0  0  0  0  0  0  0  0
   29.7045   11.3775   11.5812 C   0  0  1  0  0  0  0  0  0  0  0  0
  5  4  1  6  0  0  0
  5  8  1  0  0  0  0
  5 16  1  0  0  0  0
  8  7  1  1  0  0  0
  8 10  1  0  0  0  0
 10  1  1  1  0  0  0
 10 12  1  0  0  0  0
 11 18  1  0  0  0  0
 12 14  1  0  0  0  0
 14  2  1  6  0  0  0
 14 16  1  0  0  0  0
 16  9  1  6  0  0  0
 17  9  1  1  0  0  0
 17 11  1  0  0  0  0
 17 22  1  0  0  0  0
 18 19  1  6  0  0  0
 18 20  1  0  0  0  0
 19  3  1  0  0  0  0
 20 13  1  1  0  0  0
 20 21  1  0  0  0  0
 21 15  1  6  0  0  0
 21 22  1  0  0  0  0
 22  6  1  1  0  0  0
M  END
>  <CHROM.1>
136.83180578,93.78159162,-56.96518637,28.69036458,10.31467939,13.73586385
1.12596882,1.13194758,1.98338901

>  <Name>
2fcx_lig

>  <RI>
1.55453e+07

>  <Rbt.Current_Directory>
/home/itssahil/PROJECTS/Mol_Feturizer/New_Systems/rnas/2fcx

>  <Rbt.Executable>
rbdock ($Id: //depot/dev/client3/rdock/2013.1/src/exe/rbdock.cxx#4 $)

>  <Rbt.Library>
libRbt.so (2013.1, Build901 2013/11/27)

>  <Rbt.Parameter_File>
/export/apps/rDock/src/rDock_2013.1_src/data/scripts/dock_solv.prm

>  <Rbt.Receptor>
prm/pocket_docking_4.prm

>  <SCORE>
-10.9868

>  <SCORE.INTER>
-14.7637

>  <SCORE.INTER.CONST>
1

>  <SCORE.INTER.POLAR>
-2.39168

>  <SCORE.INTER.ROT>
3

>  <SCORE.INTER.SOLV>
11.5202

>  <SCORE.INTER.VDW>
-11.3103

>  <SCORE.INTER.norm>
-0.671077

>  <SCORE.INTRA>
3.77686

>  <SCORE.INTRA.DIHEDRAL>
5.34977

>  <SCORE.INTRA.DIHEDRAL.0>
4.88619

>  <SCORE.INTRA.POLAR>
0

>  <SCORE.INTRA.POLAR.0>
0

>  <SCORE.INTRA.REPUL>
0

>  <SCORE.INTRA.REPUL.0>
0

>  <SCORE.INTRA.SOLV>
3.46008

>  <SCORE.INTRA.SOLV.lig_0>
-73.8187

>  <SCORE.INTRA.VDW>
-0.62807

>  <SCORE.INTRA.VDW.0>
-1.32335

>  <SCORE.INTRA.norm>
0.171675

>  <SCORE.RESTR>
0

>  <SCORE.RESTR.CAVITY>
0

>  <SCORE.RESTR.norm>
0

>  <SCORE.SYSTEM>
0

>  <SCORE.SYSTEM.CONST>
0

>  <SCORE.SYSTEM.DIHEDRAL>
0

>  <SCORE.SYSTEM.SOLV>
0

>  <SCORE.SYSTEM.norm>
0

>  <SCORE.heavy>
22

>  <SCORE.norm>
-0.499402

>  <RMSD>
5.977

$$$$
2fcx_lig
 OpenBabel11021811433D
libRbt.so/2013.1/901 2013/11/27
 22 23  0  0  0  0  0  0  0  0999 V2000
   28.8685    9.1909   19.1429 N   0  0  0  0  0  0  0  0  0  0  0  0
   28.3991    8.1304   14.3754 N   0  0  0  0  0  0  0  0  0  0  0  0
   27.9800    7.6329    9.8873 N   0  0  0  0  0  0  0  0  0  0  0  0
   30.3112   12.3888   15.7502 O   0  0  0  0  0  0  0  0  0  0  0  0
   29.3239   11.4059   16.0734 C   0  0  2  0  0  0  0  0  0  0  0  0
   30.3616   12.6776   12.0890 N   0  0  0  0  0  0  0  0  0  0  0  0
   29.4438   11.9237   18.4135 O   0  0  0  0  0  0  0  0  0  0  0  0
   29.5805   10.8493   17.4759 C   0  0  1  0  0  0  0  0  0  0  0  0
   28.8954   10.8454   13.7425 O   0  0  0  0  0  0  0  0  0  0  0  0
   28.5759    9.7450   17.8129 C   0  0  1  0  0  0  0  0  0  0  0  0
   29.0319    9.1926   12.0867 O   0  0  0  0  0  0  0  0  0  0  0  0
   28.6430    8.6205   16.7741 C   0  0  0  0  0  0  0  0  0  0  0  0
   26.4193   10.7727    9.9990 O   0  0  0  0  0  0  0  0  0  0  0  0
   28.3368    9.1940   15.3877 C   0  0  1  0  0  0  0  0  0  0  0  0
   28.4595   12.7385    9.9413 O   0  0  0  0  0  0  0  0  0  0  0  0
   29.3189   10.3053   15.0054 C   0  0  2  0  0  0  0  0  0  0  0  0
   29.6655   10.3673   12.6261 C   0  0  1  0  0  0  0  0  0  0  0  0
   27.7110    9.4277   11.5588 C   0  0  2  0  0  0  0  0  0  0  0  0
   27.1300    8.1375   10.9760 C   0  0  0  0  0  0  0  0  0  0  0  0
   27.7459   10.4841   10.4511 C   0  0  2  0  0  0  0  0  0  0  0  0
   28.3687   11.7729   10.9905 C   0  0  1  0  0  0  0  0  0  0  0  0
   29.7587   11.4526   11.5466 C   0  0  1  0  0  0  0  0  0  0  0  0
  5  4  1  6  0  0  0
  5  8  1  0  0  0  0
  5 16  1  0  0  0  0
  8  7  1  1  0  0  0
  8 10  1  0  0  0  0
 10  1  1  1  0  0  0
 10 12  1  0  0  0  0
 11 18  1  0  0  0  0
 12 14  1  0  0  0  0
 14  2  1  6  0  0  0
 14 16  1  0  0  0  0
 16  9  1  6  0  0  0
 17  9  1  1  0  0  0
 17 11  1  0  0  0  0
 17 22  1  0  0  0  0
 18 19  1  6  0  0  0
 18 20  1  0  0  0  0
 19  3  1  0  0  0  0
 20 13  1  1  0  0  0
 20 21  1  0  0  0  0
 21 15  1  6  0  0  0
 21 22  1  0  0  0  0
 22  6  1  1  0  0  0
M  END
>  <CHROM.1>
138.04847210,91.44822771,-60.07405843,28.73972977,10.36190587,13.71120387
1.14390534,1.16261737,1.95947729

>  <Name>
2fcx_lig

>  <RI>
1.55453e+07

>  <Rbt.Current_Directory>
/home/itssahil/PROJECTS/Mol_Feturizer/New_Systems/rnas/2fcx

>  <Rbt.Executable>
rbdock ($Id: //depot/dev/client3/rdock/2013.1/src/exe/rbdock.cxx#4 $)

>  <Rbt.Library>
libRbt.so (2013.1, Build901 2013/11/27)

>  <Rbt.Parameter_File>
/export/apps/rDock/src/rDock_2013.1_src/data/scripts/dock_solv.prm

>  <Rbt.Receptor>
prm/pocket_docking_4.prm

>  <SCORE>
-10.9804

>  <SCORE.INTER>
-14.6313

>  <SCORE.INTER.CONST>
1

>  <SCORE.INTER.POLAR>
-2.34534

>  <SCORE.INTER.ROT>
3

>  <SCORE.INTER.SOLV>
12.1972

>  <SCORE.INTER.VDW>
-11.6021

>  <SCORE.INTER.norm>
-0.66506

>  <SCORE.INTRA>
3.65091

>  <SCORE.INTRA.DIHEDRAL>
4.70159

>  <SCORE.INTRA.DIHEDRAL.0>
4.88619

>  <SCORE.INTRA.POLAR>
0

>  <SCORE.INTRA.POLAR.0>
0

>  <SCORE.INTRA.REPUL>
0

>  <SCORE.INTRA.REPUL.0>
0

>  <SCORE.INTRA.SOLV>
3.56072

>  <SCORE.INTRA.SOLV.lig_0>
-73.8187

>  <SCORE.INTRA.VDW>
-0.480247

>  <SCORE.INTRA.VDW.0>
-1.32335

>  <SCORE.INTRA.norm>
0.16595

>  <SCORE.RESTR>
0

>  <SCORE.RESTR.CAVITY>
0

>  <SCORE.RESTR.norm>
0

>  <SCORE.SYSTEM>
0

>  <SCORE.SYSTEM.CONST>
0

>  <SCORE.SYSTEM.DIHEDRAL>
0

>  <SCORE.SYSTEM.SOLV>
0

>  <SCORE.SYSTEM.norm>
0

>  <SCORE.heavy>
22

>  <SCORE.norm>
-0.499109

>  <RMSD>
5.977

$$$$
2fcx_lig
 OpenBabel11021811433D
libRbt.so/2013.1/901 2013/11/27
 22 23  0  0  0  0  0  0  0  0999 V2000
   28.7595    9.3164   19.0549 N   0  0  0  0  0  0  0  0  0  0  0  0
   28.0356    6.9810   14.8009 N   0  0  0  0  0  0  0  0  0  0  0  0
   28.7073   13.4593   10.4325 N   0  0  0  0  0  0  0  0  0  0  0  0
   30.8082   10.9774   14.9485 O   0  0  0  0  0  0  0  0  0  0  0  0
   29.6402   10.3590   15.4951 C   0  0  2  0  0  0  0  0  0  0  0  0
   26.4588    8.3415   12.6511 N   0  0  0  0  0  0  0  0  0  0  0  0
   29.8869   11.5251   17.5778 O   0  0  0  0  0  0  0  0  0  0  0  0
   29.7874   10.2130   17.0115 C   0  0  1  0  0  0  0  0  0  0  0  0
   29.0829    9.2182   13.4168 O   0  0  0  0  0  0  0  0  0  0  0  0
   28.5772    9.4893   17.6063 C   0  0  1  0  0  0  0  0  0  0  0  0
   28.5957   11.3982   12.7083 O   0  0  0  0  0  0  0  0  0  0  0  0
   28.3983    8.1140   16.9546 C   0  0  0  0  0  0  0  0  0  0  0  0
   28.9671   10.5420    9.1291 O   0  0  0  0  0  0  0  0  0  0  0  0
   28.2062    8.2907   15.4458 C   0  0  1  0  0  0  0  0  0  0  0  0
   26.7319    8.9622    9.8628 O   0  0  0  0  0  0  0  0  0  0  0  0
   29.3955    9.0117   14.8045 C   0  0  2  0  0  0  0  0  0  0  0  0
   28.0275   10.1709   13.2014 C   0  0  1  0  0  0  0  0  0  0  0  0
   29.2525   11.2699   11.4311 C   0  0  2  0  0  0  0  0  0  0  0  0
   29.7930   12.6248   10.9686 C   0  0  0  0  0  0  0  0  0  0  0  0
   28.2814   10.7499   10.3677 C   0  0  2  0  0  0  0  0  0  0  0  0
   27.6852    9.4175   10.8249 C   0  0  1  0  0  0  0  0  0  0  0  0
   27.0177    9.6187   12.1879 C   0  0  1  0  0  0  0  0  0  0  0  0
  5  4  1  6  0  0  0
  5  8  1  0  0  0  0
  5 16  1  0  0  0  0
  8  7  1  1  0  0  0
  8 10  1  0  0  0  0
 10  1  1  1  0  0  0
 10 12  1  0  0  0  0
 11 18  1  0  0  0  0
 12 14  1  0  0  0  0
 14  2  1  6  0  0  0
 14 16  1  0  0  0  0
 16  9  1  6  0  0  0
 17  9  1  6  0  0  0
 17 11  1  0  0  0  0
 17 22  1  0  0  0  0
 18 19  1  6  0  0  0
 18 20  1  0  0  0  0
 19  3  1  0  0  0  0
 20 13  1  6  0  0  0
 20 21  1  0  0  0  0
 21 15  1  6  0  0  0
 21 22  1  0  0  0  0
 22  6  1  1  0  0  0
M  END
>  <CHROM.1>
-51.62311084,105.86836743,-77.69247201,28.65681207,10.02367847,13.64299295
1.34828952,0.99319367,1.95056766

>  <Name>
2fcx_lig

>  <RI>
3.23342e+07

>  <Rbt.Current_Directory>
/home/itssahil/PROJECTS/Mol_Feturizer/New_Systems/rnas/2fcx

>  <Rbt.Executable>
rbdock ($Id: //depot/dev/client3/rdock/2013.1/src/exe/rbdock.cxx#4 $)

>  <Rbt.Library>
libRbt.so (2013.1, Build901 2013/11/27)

>  <Rbt.Parameter_File>
/export/apps/rDock/src/rDock_2013.1_src/data/scripts/dock_solv.prm

>  <Rbt.Receptor>
prm/pocket_docking_5.prm

>  <SCORE>
-10.7015

>  <SCORE.INTER>
-15.038

>  <SCORE.INTER.CONST>
1

>  <SCORE.INTER.POLAR>
-2.34036

>  <SCORE.INTER.ROT>
3

>  <SCORE.INTER.SOLV>
13.714

>  <SCORE.INTER.VDW>
-12.3955

>  <SCORE.INTER.norm>
-0.683547

>  <SCORE.INTRA>
4.3365

>  <SCORE.INTRA.DIHEDRAL>
2.77908

>  <SCORE.INTRA.DIHEDRAL.0>
4.88619

>  <SCORE.INTRA.POLAR>
0

>  <SCORE.INTRA.POLAR.0>
0

>  <SCORE.INTRA.REPUL>
0

>  <SCORE.INTRA.REPUL.0>
0

>  <SCORE.INTRA.SOLV>
3.77411

>  <SCORE.INTRA.SOLV.lig_0>
-73.8187

>  <SCORE.INTRA.VDW>
1.0599

>  <SCORE.INTRA.VDW.0>
-1.32335

>  <SCORE.INTRA.norm>
0.197114

>  <SCORE.RESTR>
0

>  <SCORE.RESTR.CAVITY>
0

>  <SCORE.RESTR.norm>
0

>  <SCORE.SYSTEM>
0

>  <SCORE.SYSTEM.CONST>
0

>  <SCORE.SYSTEM.DIHEDRAL>
0

>  <SCORE.SYSTEM.SOLV>
0

>  <SCORE.SYSTEM.norm>
0

>  <SCORE.heavy>
22

>  <SCORE.norm>
-0.486434

>  <RMSD>
6.004

$$$$
2fcx_lig
 OpenBabel11021811433D
libRbt.so/2013.1/901 2013/11/27
 22 23  0  0  0  0  0  0  0  0999 V2000
   28.9760    8.0100   18.1282 N   0  0  0  0  0  0  0  0  0  0  0  0
   28.1011    6.5743   13.5187 N   0  0  0  0  0  0  0  0  0  0  0  0
   29.8759   13.4784   13.5402 N   0  0  0  0  0  0  0  0  0  0  0  0
   30.3514   10.8041   14.3704 O   0  0  0  0  0  0  0  0  0  0  0  0
   29.3349    9.9180   14.8470 C   0  0  2  0  0  0  0  0  0  0  0  0
   26.4260    8.5313   10.9950 N   0  0  0  0  0  0  0  0  0  0  0  0
   29.6541   10.6271   17.1171 O   0  0  0  0  0  0  0  0  0  0  0  0
   29.6600    9.4693   16.2737 C   0  0  1  0  0  0  0  0  0  0  0  0
   28.7066    9.1871   12.6105 O   0  0  0  0  0  0  0  0  0  0  0  0
   28.6202    8.4650   16.7761 C   0  0  1  0  0  0  0  0  0  0  0  0
   27.8429   11.3273   13.0168 O   0  0  0  0  0  0  0  0  0  0  0  0
   28.5465    7.2529   15.8413 C   0  0  0  0  0  0  0  0  0  0  0  0
   28.7645   12.5656    9.6555 O   0  0  0  0  0  0  0  0  0  0  0  0
   28.1742    7.7232   14.4324 C   0  0  1  0  0  0  0  0  0  0  0  0
   26.8534   10.5713    9.0227 O   0  0  0  0  0  0  0  0  0  0  0  0
   29.1887    8.7320   13.8859 C   0  0  2  0  0  0  0  0  0  0  0  0
   27.5010    9.9661   12.6969 C   0  0  1  0  0  0  0  0  0  0  0  0
   28.6431   11.9835   12.0128 C   0  0  2  0  0  0  0  0  0  0  0  0
   28.9277   13.4316   12.4172 C   0  0  0  0  0  0  0  0  0  0  0  0
   27.9233   11.9929   10.6614 C   0  0  2  0  0  0  0  0  0  0  0  0
   27.5804   10.5594   10.2526 C   0  0  1  0  0  0  0  0  0  0  0  0
   26.7451    9.9172   11.3634 C   0  0  1  0  0  0  0  0  0  0  0  0
  5  4  1  6  0  0  0
  5  8  1  0  0  0  0
  5 16  1  0  0  0  0
  8  7  1  1  0  0  0
  8 10  1  0  0  0  0
 10  1  1  1  0  0  0
 10 12  1  0  0  0  0
 11 18  1  0  0  0  0
 12 14  1  0  0  0  0
 14  2  1  6  0  0  0
 14 16  1  0  0  0  0
 16  9  1  6  0  0  0
 17  9  1  6  0  0  0
 17 11  1  0  0  0  0
 17 22  1  0  0  0  0
 18 19  1  1  0  0  0
 18 20  1  0  0  0  0
 19  3  1  0  0  0  0
 20 13  1  6  0  0  0
 20 21  1  0  0  0  0
 21 15  1  6  0  0  0
 21 22  1  0  0  0  0
 22  6  1  6  0  0  0
M  END
>  <CHROM.1>
-53.36771185,82.84389668,71.19740135,28.48552904,10.08584036,13.31145589
-1.16609020,-1.07883187,-0.75206234

>  <Name>
2fcx_lig

>  <RI>
1.55453e+07

>  <Rbt.Current_Directory>
/home/itssahil/PROJECTS/Mol_Feturizer/New_Systems/rnas/2fcx

>  <Rbt.Executable>
rbdock ($Id: //depot/dev/client3/rdock/2013.1/src/exe/rbdock.cxx#4 $)

>  <Rbt.Library>
libRbt.so (2013.1, Build901 2013/11/27)

>  <Rbt.Parameter_File>
/export/apps/rDock/src/rDock_2013.1_src/data/scripts/dock_solv.prm

>  <Rbt.Receptor>
prm/pocket_docking_4.prm

>  <SCORE>
44.1801

>  <SCORE.INTER>
43.1156

>  <SCORE.INTER.CONST>
1

>  <SCORE.INTER.POLAR>
-0.412574

>  <SCORE.INTER.ROT>
3

>  <SCORE.INTER.SOLV>
11.2988

>  <SCORE.INTER.VDW>
20.7527

>  <SCORE.INTER.norm>
1.9598

>  <SCORE.INTRA>
1.06448

>  <SCORE.INTRA.DIHEDRAL>
-1.94704

>  <SCORE.INTRA.DIHEDRAL.0>
4.88619

>  <SCORE.INTRA.POLAR>
0

>  <SCORE.INTRA.POLAR.0>
0

>  <SCORE.INTRA.REPUL>
0

>  <SCORE.INTRA.REPUL.0>
0

>  <SCORE.INTRA.SOLV>
2.5487

>  <SCORE.INTRA.SOLV.lig_0>
-73.8187

>  <SCORE.INTRA.VDW>
0.76365

>  <SCORE.INTRA.VDW.0>
-1.32335

>  <SCORE.INTRA.norm>
0.0483854

>  <SCORE.RESTR>
0

>  <SCORE.RESTR.CAVITY>
0

>  <SCORE.RESTR.norm>
0

>  <SCORE.SYSTEM>
0

>  <SCORE.SYSTEM.CONST>
0

>  <SCORE.SYSTEM.DIHEDRAL>
0

>  <SCORE.SYSTEM.SOLV>
0

>  <SCORE.SYSTEM.norm>
0

>  <SCORE.heavy>
22

>  <SCORE.norm>
2.00819

>  <RMSD>
6.057

$$$$
2fcx_lig
 OpenBabel11021811433D
libRbt.so/2013.1/901 2013/11/27
 22 23  0  0  0  0  0  0  0  0999 V2000
   30.2088   10.7312   16.4914 N   0  0  0  0  0  0  0  0  0  0  0  0
   26.2541   10.2233   13.6319 N   0  0  0  0  0  0  0  0  0  0  0  0
   28.0693    6.8360    9.2709 N   0  0  0  0  0  0  0  0  0  0  0  0
   30.6417   10.8799   11.6325 O   0  0  0  0  0  0  0  0  0  0  0  0
   29.8067   11.2440   12.7351 C   0  0  2  0  0  0  0  0  0  0  0  0
   27.7529   12.9074    9.1528 N   0  0  0  0  0  0  0  0  0  0  0  0
   31.6981   11.5863   14.1716 O   0  0  0  0  0  0  0  0  0  0  0  0
   30.4774   10.8463   14.0520 C   0  0  1  0  0  0  0  0  0  0  0  0
   27.7604   11.1442   11.4182 O   0  0  0  0  0  0  0  0  0  0  0  0
   29.5678   11.1640   15.2411 C   0  0  1  0  0  0  0  0  0  0  0  0
   28.2082    9.3105   10.0294 O   0  0  0  0  0  0  0  0  0  0  0  0
   28.2199   10.4499   15.0940 C   0  0  0  0  0  0  0  0  0  0  0  0
   24.7274    9.1319    8.7912 O   0  0  0  0  0  0  0  0  0  0  0  0
   27.5487   10.9000   13.7933 C   0  0  1  0  0  0  0  0  0  0  0  0
   25.5554   11.6537    7.7986 O   0  0  0  0  0  0  0  0  0  0  0  0
   28.4237   10.6016   12.5722 C   0  0  2  0  0  0  0  0  0  0  0  0
   28.3502   10.7360   10.1719 C   0  0  1  0  0  0  0  0  0  0  0  0
   26.8401    8.8603    9.9630 C   0  0  2  0  0  0  0  0  0  0  0  0
   26.7845    7.3425    9.7760 C   0  0  0  0  0  0  0  0  0  0  0  0
   26.1054    9.5175    8.7914 C   0  0  2  0  0  0  0  0  0  0  0  0
   26.1862   11.0392    8.9239 C   0  0  1  0  0  0  0  0  0  0  0  0
   27.6592   11.4489    9.0031 C   0  0  1  0  0  0  0  0  0  0  0  0
  5  4  1  6  0  0  0
  5  8  1  0  0  0  0
  5 16  1  0  0  0  0
  8  7  1  1  0  0  0
  8 10  1  0  0  0  0
 10  1  1  1  0  0  0
 10 12  1  0  0  0  0
 11 18  1  0  0  0  0
 12 14  1  0  0  0  0
 14  2  1  6  0  0  0
 14 16  1  0  0  0  0
 16  9  1  6  0  0  0
 17  9  1  1  0  0  0
 17 11  1  0  0  0  0
 17 22  1  0  0  0  0
 18 19  1  6  0  0  0
 18 20  1  0  0  0  0
 19  3  1  0  0  0  0
 20 13  1  1  0  0  0
 20 21  1  0  0  0  0
 21 15  1  6  0  0  0
 21 22  1  0  0  0  0
 22  6  1  1  0  0  0
M  END
>  <CHROM.1>
69.89304070,64.04638901,-19.07904627,28.03884560,10.38961200,11.44387844
0.49491013,0.94123109,2.35161467

>  <Name>
2fcx_lig

>  <RI>
0

>  <Rbt.Current_Directory>
/home/itssahil/PROJECTS/Mol_Feturizer/New_Systems/rnas/2fcx

>  <Rbt.Executable>
rbdock ($Id: //depot/dev/client3/rdock/2013.1/src/exe/rbdock.cxx#4 $)

>  <Rbt.Library>
libRbt.so (2013.1, Build901 2013/11/27)

>  <Rbt.Parameter_File>
/export/apps/rDock/src/rDock_2013.1_src/data/scripts/dock_solv.prm

>  <Rbt.Receptor>
prm/pocket_docking_6.prm

>  <SCORE>
-11.0257

>  <SCORE.INTER>
-11.5248

>  <SCORE.INTER.CONST>
1

>  <SCORE.INTER.POLAR>
-2.4164

>  <SCORE.INTER.ROT>
3

>  <SCORE.INTER.SOLV>
14.5412

>  <SCORE.INTER.VDW>
-10.0756

>  <SCORE.INTER.norm>
-0.523853

>  <SCORE.INTRA>
0.499101

>  <SCORE.INTRA.DIHEDRAL>
-0.275287

>  <SCORE.INTRA.DIHEDRAL.0>
4.88619

>  <SCORE.INTRA.POLAR>
0

>  <SCORE.INTRA.POLAR.0>
0

>  <SCORE.INTRA.REPUL>
0

>  <SCORE.INTRA.REPUL.0>
0

>  <SCORE.INTRA.SOLV>
-0.0705997

>  <SCORE.INTRA.SOLV.lig_0>
-73.8187

>  <SCORE.INTRA.VDW>
0.672045

>  <SCORE.INTRA.VDW.0>
-1.32335

>  <SCORE.INTRA.norm>
0.0226864

>  <SCORE.RESTR>
0

>  <SCORE.RESTR.CAVITY>
0

>  <SCORE.RESTR.norm>
0

>  <SCORE.SYSTEM>
0

>  <SCORE.SYSTEM.CONST>
0

>  <SCORE.SYSTEM.DIHEDRAL>
0

>  <SCORE.SYSTEM.SOLV>
0

>  <SCORE.SYSTEM.norm>
0

>  <SCORE.heavy>
22

>  <SCORE.norm>
-0.501167

>  <RMSD>
6.057

$$$$
2fcx_lig
 OpenBabel11021811433D
libRbt.so/2013.1/901 2013/11/27
 22 23  0  0  0  0  0  0  0  0999 V2000
   29.4168    9.6495   17.9866 N   0  0  0  0  0  0  0  0  0  0  0  0
   27.4755    7.6513   13.9477 N   0  0  0  0  0  0  0  0  0  0  0  0
   27.2040    6.7100    9.6055 N   0  0  0  0  0  0  0  0  0  0  0  0
   29.9750   11.8158   13.6491 O   0  0  0  0  0  0  0  0  0  0  0  0
   29.0702   11.0656   14.4639 C   0  0  2  0  0  0  0  0  0  0  0  0
   28.6235   12.7212   11.6871 N   0  0  0  0  0  0  0  0  0  0  0  0
   29.9176   12.0584   16.4775 O   0  0  0  0  0  0  0  0  0  0  0  0
   29.6995   10.7977   15.8331 C   0  0  1  0  0  0  0  0  0  0  0  0
   27.9290   10.0743   12.5544 O   0  0  0  0  0  0  0  0  0  0  0  0
   28.7747    9.9355   16.6953 C   0  0  1  0  0  0  0  0  0  0  0  0
   28.5124    9.2007   10.4596 O   0  0  0  0  0  0  0  0  0  0  0  0
   28.4568    8.6136   15.9884 C   0  0  0  0  0  0  0  0  0  0  0  0
   25.4196   10.4355    8.8500 O   0  0  0  0  0  0  0  0  0  0  0  0
   27.7861    8.9079   14.6437 C   0  0  1  0  0  0  0  0  0  0  0  0
   26.6960   12.8621    9.5660 O   0  0  0  0  0  0  0  0  0  0  0  0
   28.6765    9.7701   13.7438 C   0  0  2  0  0  0  0  0  0  0  0  0
   28.7531   10.2703   11.3925 C   0  0  1  0  0  0  0  0  0  0  0  0
   27.1615    9.1517    9.9581 C   0  0  2  0  0  0  0  0  0  0  0  0
   27.0059    8.0112    8.9497 C   0  0  0  0  0  0  0  0  0  0  0  0
   26.7894   10.4641    9.2628 C   0  0  2  0  0  0  0  0  0  0  0  0
   26.9825   11.6312   10.2325 C   0  0  1  0  0  0  0  0  0  0  0  0
   28.4280   11.6180   10.7369 C   0  0  1  0  0  0  0  0  0  0  0  0
  5  4  1  6  0  0  0
  5  8  1  0  0  0  0
  5 16  1  0  0  0  0
  8  7  1  1  0  0  0
  8 10  1  0  0  0  0
 10  1  1  1  0  0  0
 10 12  1  0  0  0  0
 11 18  1  0  0  0  0
 12 14  1  0  0  0  0
 14  2  1  6  0  0  0
 14 16  1  0  0  0  0
 16  9  1  6  0  0  0
 17  9  1  1  0  0  0
 17 11  1  0  0  0  0
 17 22  1  0  0  0  0
 18 19  1  6  0  0  0
 18 20  1  0  0  0  0
 19  3  1  0  0  0  0
 20 13  1  1  0  0  0
 20 21  1  0  0  0  0
 21 15  1  6  0  0  0
 21 22  1  0  0  0  0
 22  6  1  1  0  0  0
M  END
>  <CHROM.1>
88.66776346,112.78056933,64.72796731,28.12040416,10.18388476,12.54765217
0.48017878,1.19609376,2.59022907

>  <Name>
2fcx_lig

>  <RI>
3.23342e+07

>  <Rbt.Current_Directory>
/home/itssahil/PROJECTS/Mol_Feturizer/New_Systems/rnas/2fcx

>  <Rbt.Executable>
rbdock ($Id: //depot/dev/client3/rdock/2013.1/src/exe/rbdock.cxx#4 $)

>  <Rbt.Library>
libRbt.so (2013.1, Build901 2013/11/27)

>  <Rbt.Parameter_File>
/export/apps/rDock/src/rDock_2013.1_src/data/scripts/dock_solv.prm

>  <Rbt.Receptor>
prm/pocket_docking_5.prm

>  <SCORE>
-4.36684

>  <SCORE.INTER>
-7.50845

>  <SCORE.INTER.CONST>
1

>  <SCORE.INTER.POLAR>
-1.36055

>  <SCORE.INTER.ROT>
3

>  <SCORE.INTER.SOLV>
9.07987

>  <SCORE.INTER.VDW>
-9.09709

>  <SCORE.INTER.norm>
-0.341293

>  <SCORE.INTRA>
3.14161

>  <SCORE.INTRA.DIHEDRAL>
5.49193

>  <SCORE.INTRA.DIHEDRAL.0>
4.88619

>  <SCORE.INTRA.POLAR>
0

>  <SCORE.INTRA.POLAR.0>
0

>  <SCORE.INTRA.REPUL>
0

>  <SCORE.INTRA.REPUL.0>
0

>  <SCORE.INTRA.SOLV>
1.14024

>  <SCORE.INTRA.SOLV.lig_0>
-73.8187

>  <SCORE.INTRA.VDW>
-0.174477

>  <SCORE.INTRA.VDW.0>
-1.32335

>  <SCORE.INTRA.norm>
0.1428

>  <SCORE.RESTR>
0

>  <SCORE.RESTR.CAVITY>
0

>  <SCORE.RESTR.norm>
0

>  <SCORE.SYSTEM>
0

>  <SCORE.SYSTEM.CONST>
0

>  <SCORE.SYSTEM.DIHEDRAL>
0

>  <SCORE.SYSTEM.SOLV>
0

>  <SCORE.SYSTEM.norm>
0

>  <SCORE.heavy>
22

>  <SCORE.norm>
-0.198493

>  <RMSD>
6.069

$$$$
2fcx_lig
 OpenBabel11021811433D
libRbt.so/2013.1/901 2013/11/27
 22 23  0  0  0  0  0  0  0  0999 V2000
   29.2104    6.4629   20.3216 N   0  0  0  0  0  0  0  0  0  0  0  0
   30.0374    7.8417   15.6860 N   0  0  0  0  0  0  0  0  0  0  0  0
   27.6719    7.8220   10.0838 N   0  0  0  0  0  0  0  0  0  0  0  0
   25.4879    7.6668   17.4040 O   0  0  0  0  0  0  0  0  0  0  0  0
   26.7672    7.0290   17.4501 C   0  0  2  0  0  0  0  0  0  0  0  0
   26.6926   10.3326   15.4435 N   0  0  0  0  0  0  0  0  0  0  0  0
   26.4013    6.2548   19.6918 O   0  0  0  0  0  0  0  0  0  0  0  0
   27.2985    7.0273   18.8854 C   0  0  1  0  0  0  0  0  0  0  0  0
   27.2784    7.5405   15.1246 O   0  0  0  0  0  0  0  0  0  0  0  0
   28.6984    6.4116   18.9443 C   0  0  1  0  0  0  0  0  0  0  0  0
   27.9469    7.9016   12.9077 O   0  0  0  0  0  0  0  0  0  0  0  0
   29.6595    7.1698   18.0225 C   0  0  0  0  0  0  0  0  0  0  0  0
   24.4684    8.2123   11.6891 O   0  0  0  0  0  0  0  0  0  0  0  0
   29.1301    7.1167   16.5866 C   0  0  1  0  0  0  0  0  0  0  0  0
   24.6698   10.4533   13.4117 O   0  0  0  0  0  0  0  0  0  0  0  0
   27.7281    7.7235   16.4775 C   0  0  2  0  0  0  0  0  0  0  0  0
   27.8124    8.5092   14.2058 C   0  0  1  0  0  0  0  0  0  0  0  0
   26.6976    7.4794   12.3246 C   0  0  2  0  0  0  0  0  0  0  0  0
   26.9305    6.8803   10.9358 C   0  0  0  0  0  0  0  0  0  0  0  0
   25.7337    8.6607   12.1845 C   0  0  2  0  0  0  0  0  0  0  0  0
   25.5192    9.3128   13.5514 C   0  0  1  0  0  0  0  0  0  0  0  0
   26.8801    9.7239   14.1197 C   0  0  1  0  0  0  0  0  0  0  0  0
  5  4  1  1  0  0  0
  5  8  1  0  0  0  0
  5 16  1  0  0  0  0
  8  7  1  1  0  0  0
  8 10  1  0  0  0  0
 10  1  1  1  0  0  0
 10 12  1  0  0  0  0
 11 18  1  0  0  0  0
 12 14  1  0  0  0  0
 14  2  1  6  0  0  0
 14 16  1  0  0  0  0
 16  9  1  6  0  0  0
 17  9  1  1  0  0  0
 17 11  1  0  0  0  0
 17 22  1  0  0  0  0
 18 19  1  6  0  0  0
 18 20  1  0  0  0  0
 19  3  1  0  0  0  0
 20 13  1  1  0  0  0
 20 21  1  0  0  0  0
 21 15  1  6  0  0  0
 21 22  1  0  0  0  0
 22  6  1  1  0  0  0
M  END
>  <CHROM.1>
159.38494492,149.00920318,-54.19230641,27.16913246,7.89187535,15.23246392
-1.28096206,0.41346518,-1.45600501

>  <Name>
2fcx_lig

>  <RI>
0

>  <Rbt.Current_Directory>
/home/itssahil/PROJECTS/Mol_Feturizer/New_Systems/rnas/2fcx

>  <Rbt.Executable>
rbdock ($Id: //depot/dev/client3/rdock/2013.1/src/exe/rbdock.cxx#4 $)

>  <Rbt.Library>
libRbt.so (2013.1, Build901 2013/11/27)

>  <Rbt.Parameter_File>
/export/apps/rDock/src/rDock_2013.1_src/data/scripts/dock_solv.prm

>  <Rbt.Receptor>
prm/pocket_docking_6.prm

>  <SCORE>
-9.18849

>  <SCORE.INTER>
-11.6424

>  <SCORE.INTER.CONST>
1

>  <SCORE.INTER.POLAR>
-1.18476

>  <SCORE.INTER.ROT>
3

>  <SCORE.INTER.SOLV>
15.3088

>  <SCORE.INTER.VDW>
-14.5153

>  <SCORE.INTER.norm>
-0.5292

>  <SCORE.INTRA>
2.45391

>  <SCORE.INTRA.DIHEDRAL>
0.926457

>  <SCORE.INTRA.DIHEDRAL.0>
4.88619

>  <SCORE.INTRA.POLAR>
0

>  <SCORE.INTRA.POLAR.0>
0

>  <SCORE.INTRA.REPUL>
0

>  <SCORE.INTRA.REPUL.0>
0

>  <SCORE.INTRA.SOLV>
3.46522

>  <SCORE.INTRA.SOLV.lig_0>
-73.8187

>  <SCORE.INTRA.VDW>
0.258066

>  <SCORE.INTRA.VDW.0>
-1.32335

>  <SCORE.INTRA.norm>
0.111541

>  <SCORE.RESTR>
0

>  <SCORE.RESTR.CAVITY>
0

>  <SCORE.RESTR.norm>
0

>  <SCORE.SYSTEM>
0

>  <SCORE.SYSTEM.CONST>
0

>  <SCORE.SYSTEM.DIHEDRAL>
0

>  <SCORE.SYSTEM.SOLV>
0

>  <SCORE.SYSTEM.norm>
0

>  <SCORE.heavy>
22

>  <SCORE.norm>
-0.417658

>  <RMSD>
6.078

$$$$
2fcx_lig
 OpenBabel11021811433D
libRbt.so/2013.1/901 2013/11/27
 22 23  0  0  0  0  0  0  0  0999 V2000
   27.7362    8.4776   18.8555 N   0  0  0  0  0  0  0  0  0  0  0  0
   27.6504    7.8276   13.9929 N   0  0  0  0  0  0  0  0  0  0  0  0
   27.5442    6.7688   11.2637 N   0  0  0  0  0  0  0  0  0  0  0  0
   29.7980   11.7604   15.8905 O   0  0  0  0  0  0  0  0  0  0  0  0
   28.6974   10.8590   16.0377 C   0  0  2  0  0  0  0  0  0  0  0  0
   29.9909   12.5895   12.3758 N   0  0  0  0  0  0  0  0  0  0  0  0
   28.6298   11.1864   18.4139 O   0  0  0  0  0  0  0  0  0  0  0  0
   28.7604   10.1767   17.4062 C   0  0  1  0  0  0  0  0  0  0  0  0
   28.4544   10.5193   13.6384 O   0  0  0  0  0  0  0  0  0  0  0  0
   27.6301    9.1557   17.5553 C   0  0  1  0  0  0  0  0  0  0  0  0
   28.9600    9.0371   11.8951 O   0  0  0  0  0  0  0  0  0  0  0  0
   27.6973    8.1107   16.4365 C   0  0  0  0  0  0  0  0  0  0  0  0
   26.5562   10.6200    9.5719 O   0  0  0  0  0  0  0  0  0  0  0  0
   27.5850    8.8136   15.0808 C   0  0  1  0  0  0  0  0  0  0  0  0
   28.4187   12.7166    9.9786 O   0  0  0  0  0  0  0  0  0  0  0  0
   28.6982    9.8472   14.8853 C   0  0  2  0  0  0  0  0  0  0  0  0
   29.4129   10.1981   12.6157 C   0  0  1  0  0  0  0  0  0  0  0  0
   27.7142    9.2293   11.1952 C   0  0  2  0  0  0  0  0  0  0  0  0
   27.3286    7.9611   10.4305 C   0  0  0  0  0  0  0  0  0  0  0  0
   27.8229   10.3821   10.1934 C   0  0  2  0  0  0  0  0  0  0  0  0
   28.2559   11.6556   10.9216 C   0  0  1  0  0  0  0  0  0  0  0  0
   29.5727   11.3809   11.6528 C   0  0  1  0  0  0  0  0  0  0  0  0
  5  4  1  6  0  0  0
  5  8  1  0  0  0  0
  5 16  1  0  0  0  0
  8  7  1  1  0  0  0
  8 10  1  0  0  0  0
 10  1  1  1  0  0  0
 10 12  1  0  0  0  0
 11 18  1  0  0  0  0
 12 14  1  0  0  0  0
 14  2  1  6  0  0  0
 14 16  1  0  0  0  0
 16  9  1  6  0  0  0
 17  9  1  1  0  0  0
 17 11  1  0  0  0  0
 17 22  1  0  0  0  0
 18 19  1  6  0  0  0
 18 20  1  0  0  0  0
 19  3  1  0  0  0  0
 20 13  1  1  0  0  0
 20 21  1  0  0  0  0
 21 15  1  6  0  0  0
 21 22  1  0  0  0  0
 22  6  1  1  0  0  0
M  END
>  <CHROM.1>
129.27402644,88.68443005,43.80845015,28.31696760,9.99904328,13.62993479,1.45958470
1.17666595,1.76578668

>  <Name>
2fcx_lig

>  <RI>
1.15031e+07

>  <Rbt.Current_Directory>
/home/itssahil/PROJECTS/Mol_Feturizer/New_Systems/rnas/2fcx

>  <Rbt.Executable>
rbdock ($Id: //depot/dev/client3/rdock/2013.1/src/exe/rbdock.cxx#4 $)

>  <Rbt.Library>
libRbt.so (2013.1, Build901 2013/11/27)

>  <Rbt.Parameter_File>
/export/apps/rDock/src/rDock_2013.1_src/data/scripts/dock_solv.prm

>  <Rbt.Receptor>
prm/pocket_docking_8.prm

>  <SCORE>
-6.64125

>  <SCORE.INTER>
-10.8692

>  <SCORE.INTER.CONST>
1

>  <SCORE.INTER.POLAR>
-1.73342

>  <SCORE.INTER.ROT>
3

>  <SCORE.INTER.SOLV>
11.8861

>  <SCORE.INTER.VDW>
-11.0301

>  <SCORE.INTER.norm>
-0.494055

>  <SCORE.INTRA>
4.22796

>  <SCORE.INTRA.DIHEDRAL>
6.15506

>  <SCORE.INTRA.DIHEDRAL.0>
4.88619

>  <SCORE.INTRA.POLAR>
0

>  <SCORE.INTRA.POLAR.0>
0

>  <SCORE.INTRA.REPUL>
0

>  <SCORE.INTRA.REPUL.0>
0

>  <SCORE.INTRA.SOLV>
4.02929

>  <SCORE.INTRA.SOLV.lig_0>
-73.8187

>  <SCORE.INTRA.VDW>
-0.864219

>  <SCORE.INTRA.VDW.0>
-1.32335

>  <SCORE.INTRA.norm>
0.19218

>  <SCORE.RESTR>
0

>  <SCORE.RESTR.CAVITY>
0

>  <SCORE.RESTR.norm>
0

>  <SCORE.SYSTEM>
0

>  <SCORE.SYSTEM.CONST>
0

>  <SCORE.SYSTEM.DIHEDRAL>
0

>  <SCORE.SYSTEM.SOLV>
0

>  <SCORE.SYSTEM.norm>
0

>  <SCORE.heavy>
22

>  <SCORE.norm>
-0.301875

>  <RMSD>
6.083

$$$$
2fcx_lig
 OpenBabel11021811433D
libRbt.so/2013.1/901 2013/11/27
 22 23  0  0  0  0  0  0  0  0999 V2000
   27.1192    7.1558   19.7207 N   0  0  0  0  0  0  0  0  0  0  0  0
   28.0154    6.8044   14.9094 N   0  0  0  0  0  0  0  0  0  0  0  0
   28.1284    6.7812   10.5979 N   0  0  0  0  0  0  0  0  0  0  0  0
   28.7950   11.0072   17.2352 O   0  0  0  0  0  0  0  0  0  0  0  0
   27.9367    9.8652   17.1661 C   0  0  2  0  0  0  0  0  0  0  0  0
   29.9610   11.6053   13.6631 N   0  0  0  0  0  0  0  0  0  0  0  0
   27.3917   10.0206   19.4979 O   0  0  0  0  0  0  0  0  0  0  0  0
   27.9310    9.1338   18.5105 C   0  0  1  0  0  0  0  0  0  0  0  0
   28.1918    9.6263   14.7559 O   0  0  0  0  0  0  0  0  0  0  0  0
   27.0731    7.8687   18.4357 C   0  0  1  0  0  0  0  0  0  0  0  0
   28.6522    8.1821   12.9687 O   0  0  0  0  0  0  0  0  0  0  0  0
   27.5791    6.9396   17.3271 C   0  0  0  0  0  0  0  0  0  0  0  0
   26.5102   10.0705   10.6177 O   0  0  0  0  0  0  0  0  0  0  0  0
   27.5306    7.6787   15.9868 C   0  0  1  0  0  0  0  0  0  0  0  0
   28.5246   11.9746   11.2066 O   0  0  0  0  0  0  0  0  0  0  0  0
   28.3770    8.9548   16.0132 C   0  0  2  0  0  0  0  0  0  0  0  0
   29.1678    9.2662   13.7632 C   0  0  1  0  0  0  0  0  0  0  0  0
   27.4632    8.5138   12.2236 C   0  0  2  0  0  0  0  0  0  0  0  0
   27.0075    7.3190   11.3831 C   0  0  0  0  0  0  0  0  0  0  0  0
   27.7198    9.6947   11.2835 C   0  0  2  0  0  0  0  0  0  0  0  0
   28.2250   10.8922   12.0899 C   0  0  1  0  0  0  0  0  0  0  0  0
   29.4759   10.4709   12.8656 C   0  0  1  0  0  0  0  0  0  0  0  0
  5  4  1  1  0  0  0
  5  8  1  0  0  0  0
  5 16  1  0  0  0  0
  8  7  1  1  0  0  0
  8 10  1  0  0  0  0
 10  1  1  1  0  0  0
 10 12  1  0  0  0  0
 11 18  1  0  0  0  0
 12 14  1  0  0  0  0
 14  2  1  6  0  0  0
 14 16  1  0  0  0  0
 16  9  1  6  0  0  0
 17  9  1  1  0  0  0
 17 11  1  0  0  0  0
 17 22  1  0  0  0  0
 18 19  1  6  0  0  0
 18 20  1  0  0  0  0
 19  3  1  0  0  0  0
 20 13  1  1  0  0  0
 20 21  1  0  0  0  0
 21 15  1  6  0  0  0
 21 22  1  0  0  0  0
 22  6  1  1  0  0  0
M  END
>  <CHROM.1>
147.40243936,93.08680799,-50.32159089,28.03249635,9.11892763,14.63016667
1.75249838,1.27254669,1.53084351

>  <Name>
2fcx_lig

>  <RI>
4.08374e+07

>  <Rbt.Current_Directory>
/home/itssahil/PROJECTS/Mol_Feturizer/New_Systems/rnas/2fcx

>  <Rbt.Executable>
rbdock ($Id: //depot/dev/client3/rdock/2013.1/src/exe/rbdock.cxx#4 $)

>  <Rbt.Library>
libRbt.so (2013.1, Build901 2013/11/27)

>  <Rbt.Parameter_File>
/export/apps/rDock/src/rDock_2013.1_src/data/scripts/dock_solv.prm

>  <Rbt.Receptor>
prm/pocket_docking_7.prm

>  <SCORE>
-10.0945

>  <SCORE.INTER>
-13.837

>  <SCORE.INTER.CONST>
1

>  <SCORE.INTER.POLAR>
-2.02515

>  <SCORE.INTER.ROT>
3

>  <SCORE.INTER.SOLV>
15.9963

>  <SCORE.INTER.VDW>
-13.4063

>  <SCORE.INTER.norm>
-0.628954

>  <SCORE.INTRA>
3.74248

>  <SCORE.INTRA.DIHEDRAL>
3.71362

>  <SCORE.INTRA.DIHEDRAL.0>
4.88619

>  <SCORE.INTRA.POLAR>
0

>  <SCORE.INTRA.POLAR.0>
0

>  <SCORE.INTRA.REPUL>
0

>  <SCORE.INTRA.REPUL.0>
0

>  <SCORE.INTRA.SOLV>
3.5127

>  <SCORE.INTRA.SOLV.lig_0>
-73.8187

>  <SCORE.INTRA.VDW>
0.129328

>  <SCORE.INTRA.VDW.0>
-1.32335

>  <SCORE.INTRA.norm>
0.170113

>  <SCORE.RESTR>
0

>  <SCORE.RESTR.CAVITY>
0

>  <SCORE.RESTR.norm>
0

>  <SCORE.SYSTEM>
0

>  <SCORE.SYSTEM.CONST>
0

>  <SCORE.SYSTEM.DIHEDRAL>
0

>  <SCORE.SYSTEM.SOLV>
0

>  <SCORE.SYSTEM.norm>
0

>  <SCORE.heavy>
22

>  <SCORE.norm>
-0.458842

>  <RMSD>
6.133

$$$$
2fcx_lig
 OpenBabel11021811433D
libRbt.so/2013.1/901 2013/11/27
 22 23  0  0  0  0  0  0  0  0999 V2000
   26.6957    6.6882   18.5816 N   0  0  0  0  0  0  0  0  0  0  0  0
   29.8441    8.0717   15.0819 N   0  0  0  0  0  0  0  0  0  0  0  0
   30.2856   12.5657   15.5903 N   0  0  0  0  0  0  0  0  0  0  0  0
   25.4037   10.0516   15.2896 O   0  0  0  0  0  0  0  0  0  0  0  0
   26.1412    8.8418   15.4849 C   0  0  2  0  0  0  0  0  0  0  0  0
   26.4481    9.6887   11.1492 N   0  0  0  0  0  0  0  0  0  0  0  0
   24.5999    8.0647   17.1518 O   0  0  0  0  0  0  0  0  0  0  0  0
   25.9836    8.3614   16.9294 C   0  0  1  0  0  0  0  0  0  0  0  0
   27.7208    9.3340   13.6977 O   0  0  0  0  0  0  0  0  0  0  0  0
   26.8225    7.1057   17.1776 C   0  0  1  0  0  0  0  0  0  0  0  0
   27.9885   11.6513   13.9220 O   0  0  0  0  0  0  0  0  0  0  0  0
   28.2985    7.3735   16.8643 C   0  0  0  0  0  0  0  0  0  0  0  0
   30.8151   11.7661   11.5390 O   0  0  0  0  0  0  0  0  0  0  0  0
   28.4343    7.8068   15.4020 C   0  0  1  0  0  0  0  0  0  0  0  0
   28.6894   10.9335    9.8603 O   0  0  0  0  0  0  0  0  0  0  0  0
   27.6104    9.0633   15.1051 C   0  0  2  0  0  0  0  0  0  0  0  0
   27.1926   10.6159   13.3163 C   0  0  1  0  0  0  0  0  0  0  0  0
   29.3628   11.6664   13.4862 C   0  0  2  0  0  0  0  0  0  0  0  0
   30.1225   12.8168   14.1506 C   0  0  0  0  0  0  0  0  0  0  0  0
   29.4521   11.8431   11.9679 C   0  0  2  0  0  0  0  0  0  0  0  0
   28.6592   10.7339   11.2747 C   0  0  1  0  0  0  0  0  0  0  0  0
   27.2178   10.7634   11.7900 C   0  0  1  0  0  0  0  0  0  0  0  0
  5  4  1  1  0  0  0
  5  8  1  0  0  0  0
  5 16  1  0  0  0  0
  8  7  1  6  0  0  0
  8 10  1  0  0  0  0
 10  1  1  1  0  0  0
 10 12  1  0  0  0  0
 11 18  1  0  0  0  0
 12 14  1  0  0  0  0
 14  2  1  1  0  0  0
 14 16  1  0  0  0  0
 16  9  1  6  0  0  0
 17  9  1  6  0  0  0
 17 11  1  0  0  0  0
 17 22  1  0  0  0  0
 18 19  1  1  0  0  0
 18 20  1  0  0  0  0
 19  3  1  0  0  0  0
 20 13  1  6  0  0  0
 20 21  1  0  0  0  0
 21 15  1  6  0  0  0
 21 22  1  0  0  0  0
 22  6  1  6  0  0  0
M  END
>  <CHROM.1>
69.99537153,65.12720842,68.94461488,27.89238816,9.83250698,14.28526600,-2.03247958
-0.49956036,-1.16776628

>  <Name>
2fcx_lig

>  <RI>
0

>  <Rbt.Current_Directory>
/home/itssahil/PROJECTS/Mol_Feturizer/New_Systems/rnas/2fcx

>  <Rbt.Executable>
rbdock ($Id: //depot/dev/client3/rdock/2013.1/src/exe/rbdock.cxx#4 $)

>  <Rbt.Library>
libRbt.so (2013.1, Build901 2013/11/27)

>  <Rbt.Parameter_File>
/export/apps/rDock/src/rDock_2013.1_src/data/scripts/dock_solv.prm

>  <Rbt.Receptor>
prm/pocket_docking_2.prm

>  <SCORE>
-4.27626

>  <SCORE.INTER>
-3.7114

>  <SCORE.INTER.CONST>
1

>  <SCORE.INTER.POLAR>
-0.684623

>  <SCORE.INTER.ROT>
3

>  <SCORE.INTER.SOLV>
18.9869

>  <SCORE.INTER.VDW>
-12.1212

>  <SCORE.INTER.norm>
-0.1687

>  <SCORE.INTRA>
-2.02102

>  <SCORE.INTRA.DIHEDRAL>
-3.98787

>  <SCORE.INTRA.DIHEDRAL.0>
4.88619

>  <SCORE.INTRA.POLAR>
0

>  <SCORE.INTRA.POLAR.0>
0

>  <SCORE.INTRA.REPUL>
0

>  <SCORE.INTRA.REPUL.0>
0

>  <SCORE.INTRA.SOLV>
-0.811079

>  <SCORE.INTRA.SOLV.lig_0>
-73.8187

>  <SCORE.INTRA.VDW>
0.378456

>  <SCORE.INTRA.VDW.0>
-1.32335

>  <SCORE.INTRA.norm>
-0.0918646

>  <SCORE.RESTR>
1.45617

>  <SCORE.RESTR.CAVITY>
1.45617

>  <SCORE.RESTR.norm>
0.0661894

>  <SCORE.SYSTEM>
0

>  <SCORE.SYSTEM.CONST>
0

>  <SCORE.SYSTEM.DIHEDRAL>
0

>  <SCORE.SYSTEM.SOLV>
0

>  <SCORE.SYSTEM.norm>
0

>  <SCORE.heavy>
22

>  <SCORE.norm>
-0.194375

>  <RMSD>
6.142

$$$$
2fcx_lig
 OpenBabel11021811433D
libRbt.so/2013.1/901 2013/11/27
 22 23  0  0  0  0  0  0  0  0999 V2000
   29.9587   10.2751   16.3743 N   0  0  0  0  0  0  0  0  0  0  0  0
   26.3176    9.2847   13.2380 N   0  0  0  0  0  0  0  0  0  0  0  0
   28.1527    6.2380   10.2435 N   0  0  0  0  0  0  0  0  0  0  0  0
   30.5974   10.8975   11.5760 O   0  0  0  0  0  0  0  0  0  0  0  0
   29.6549   11.0107   12.6458 C   0  0  2  0  0  0  0  0  0  0  0  0
   27.6260   12.5288    9.0334 N   0  0  0  0  0  0  0  0  0  0  0  0
   31.3742   11.5761   14.2214 O   0  0  0  0  0  0  0  0  0  0  0  0
   30.3220   10.6367   13.9715 C   0  0  1  0  0  0  0  0  0  0  0  0
   27.7322   10.6446   11.1966 O   0  0  0  0  0  0  0  0  0  0  0  0
   29.3108   10.6836   15.1193 C   0  0  1  0  0  0  0  0  0  0  0  0
   28.4143    8.9499    9.7288 O   0  0  0  0  0  0  0  0  0  0  0  0
   28.1304    9.7484   14.8356 C   0  0  0  0  0  0  0  0  0  0  0  0
   25.0165    8.4981    8.3386 O   0  0  0  0  0  0  0  0  0  0  0  0
   27.4521   10.1723   13.5299 C   0  0  1  0  0  0  0  0  0  0  0  0
   25.6180   11.1441    7.5218 O   0  0  0  0  0  0  0  0  0  0  0  0
   28.4273   10.1406   12.3493 C   0  0  2  0  0  0  0  0  0  0  0  0
   28.4048   10.3715    9.9553 C   0  0  1  0  0  0  0  0  0  0  0  0
   27.1025    8.3700    9.5807 C   0  0  2  0  0  0  0  0  0  0  0  0
   27.2088    6.8680    9.3082 C   0  0  0  0  0  0  0  0  0  0  0  0
   26.3471    9.0187    8.4175 C   0  0  2  0  0  0  0  0  0  0  0  0
   26.2673   10.5304    8.6368 C   0  0  1  0  0  0  0  0  0  0  0  0
   27.6871   11.0797    8.7998 C   0  0  1  0  0  0  0  0  0  0  0  0
  5  4  1  6  0  0  0
  5  8  1  0  0  0  0
  5 16  1  0  0  0  0
  8  7  1  1  0  0  0
  8 10  1  0  0  0  0
 10  1  1  1  0  0  0
 10 12  1  0  0  0  0
 11 18  1  0  0  0  0
 12 14  1  0  0  0  0
 14  2  1  6  0  0  0
 14 16  1  0  0  0  0
 16  9  1  6  0  0  0
 17  9  1  1  0  0  0
 17 11  1  0  0  0  0
 17 22  1  0  0  0  0
 18 19  1  6  0  0  0
 18 20  1  0  0  0  0
 19  3  1  0  0  0  0
 20 13  1  1  0  0  0
 20 21  1  0  0  0  0
 21 15  1  6  0  0  0
 21 22  1  0  0  0  0
 22  6  1  1  0  0  0
M  END
>  <CHROM.1>
74.02761318,65.91640256,46.81734492,28.05236596,9.94419942,11.26758255,0.46834596
1.00674593,2.39791551

>  <Name>
2fcx_lig

>  <RI>
1.15031e+07

>  <Rbt.Current_Directory>
/home/itssahil/PROJECTS/Mol_Feturizer/New_Systems/rnas/2fcx

>  <Rbt.Executable>
rbdock ($Id: //depot/dev/client3/rdock/2013.1/src/exe/rbdock.cxx#4 $)

>  <Rbt.Library>
libRbt.so (2013.1, Build901 2013/11/27)

>  <Rbt.Parameter_File>
/export/apps/rDock/src/rDock_2013.1_src/data/scripts/dock_solv.prm

>  <Rbt.Receptor>
prm/pocket_docking_8.prm

>  <SCORE>
-13.6056

>  <SCORE.INTER>
-11.9192

>  <SCORE.INTER.CONST>
1

>  <SCORE.INTER.POLAR>
-2.56058

>  <SCORE.INTER.ROT>
3

>  <SCORE.INTER.SOLV>
14.7622

>  <SCORE.INTER.VDW>
-9.93157

>  <SCORE.INTER.norm>
-0.54178

>  <SCORE.INTRA>
-1.68643

>  <SCORE.INTRA.DIHEDRAL>
-3.16871

>  <SCORE.INTRA.DIHEDRAL.0>
4.88619

>  <SCORE.INTRA.POLAR>
0

>  <SCORE.INTRA.POLAR.0>
0

>  <SCORE.INTRA.REPUL>
0

>  <SCORE.INTRA.REPUL.0>
0

>  <SCORE.INTRA.SOLV>
-0.495365

>  <SCORE.INTRA.SOLV.lig_0>
-73.8187

>  <SCORE.INTRA.VDW>
0.145605

>  <SCORE.INTRA.VDW.0>
-1.32335

>  <SCORE.INTRA.norm>
-0.076656

>  <SCORE.RESTR>
0

>  <SCORE.RESTR.CAVITY>
0

>  <SCORE.RESTR.norm>
0

>  <SCORE.SYSTEM>
0

>  <SCORE.SYSTEM.CONST>
0

>  <SCORE.SYSTEM.DIHEDRAL>
0

>  <SCORE.SYSTEM.SOLV>
0

>  <SCORE.SYSTEM.norm>
0

>  <SCORE.heavy>
22

>  <SCORE.norm>
-0.618436

>  <RMSD>
6.149

$$$$
2fcx_lig
 OpenBabel11021811433D
libRbt.so/2013.1/901 2013/11/27
 22 23  0  0  0  0  0  0  0  0999 V2000
   29.9776   10.2834   16.3752 N   0  0  0  0  0  0  0  0  0  0  0  0
   26.3625    9.2112   13.2358 N   0  0  0  0  0  0  0  0  0  0  0  0
   28.1803    6.1992   10.2096 N   0  0  0  0  0  0  0  0  0  0  0  0
   30.6098   10.9105   11.5767 O   0  0  0  0  0  0  0  0  0  0  0  0
   29.6636   11.0057   12.6450 C   0  0  2  0  0  0  0  0  0  0  0  0
   27.6506   12.5081    9.0544 N   0  0  0  0  0  0  0  0  0  0  0  0
   31.3684   11.6100   14.2219 O   0  0  0  0  0  0  0  0  0  0  0  0
   30.3366   10.6482   13.9723 C   0  0  1  0  0  0  0  0  0  0  0  0
   27.7510   10.5968   11.1938 O   0  0  0  0  0  0  0  0  0  0  0  0
   29.3230   10.6759   15.1186 C   0  0  1  0  0  0  0  0  0  0  0  0
   28.4559    8.9256    9.7099 O   0  0  0  0  0  0  0  0  0  0  0  0
   28.1629    9.7157   14.8350 C   0  0  0  0  0  0  0  0  0  0  0  0
   25.0726    8.4706    8.2860 O   0  0  0  0  0  0  0  0  0  0  0  0
   27.4777   10.1229   13.5276 C   0  0  1  0  0  0  0  0  0  0  0  0
   25.6639   11.1307    7.5085 O   0  0  0  0  0  0  0  0  0  0  0  0
   28.4550   10.1096   12.3484 C   0  0  2  0  0  0  0  0  0  0  0  0
   28.4356   10.3440    9.9548 C   0  0  1  0  0  0  0  0  0  0  0  0
   27.1491    8.3395    9.5435 C   0  0  2  0  0  0  0  0  0  0  0  0
   27.2673    6.8417    9.2526 C   0  0  0  0  0  0  0  0  0  0  0  0
   26.3991    8.9984    8.3826 C   0  0  2  0  0  0  0  0  0  0  0  0
   26.3080   10.5066    8.6208 C   0  0  1  0  0  0  0  0  0  0  0  0
   27.7228   11.0626    8.8026 C   0  0  1  0  0  0  0  0  0  0  0  0
  5  4  1  6  0  0  0
  5  8  1  0  0  0  0
  5 16  1  0  0  0  0
  8  7  1  1  0  0  0
  8 10  1  0  0  0  0
 10  1  1  1  0  0  0
 10 12  1  0  0  0  0
 11 18  1  0  0  0  0
 12 14  1  0  0  0  0
 14  2  1  6  0  0  0
 14 16  1  0  0  0  0
 16  9  1  6  0  0  0
 17  9  1  1  0  0  0
 17 11  1  0  0  0  0
 17 22  1  0  0  0  0
 18 19  1  6  0  0  0
 18 20  1  0  0  0  0
 19  3  1  0  0  0  0
 20 13  1  1  0  0  0
 20 21  1  0  0  0  0
 21 15  1  6  0  0  0
 21 22  1  0  0  0  0
 22  6  1  1  0  0  0
M  END
>  <CHROM.1>
73.61139716,67.27881890,48.29957955,28.08279336,9.92405491,11.25616086,0.45767578
1.01827266,2.40681472

>  <Name>
2fcx_lig

>  <RI>
4.08374e+07

>  <Rbt.Current_Directory>
/home/itssahil/PROJECTS/Mol_Feturizer/New_Systems/rnas/2fcx

>  <Rbt.Executable>
rbdock ($Id: //depot/dev/client3/rdock/2013.1/src/exe/rbdock.cxx#4 $)

>  <Rbt.Library>
libRbt.so (2013.1, Build901 2013/11/27)

>  <Rbt.Parameter_File>
/export/apps/rDock/src/rDock_2013.1_src/data/scripts/dock_solv.prm

>  <Rbt.Receptor>
prm/pocket_docking_7.prm

>  <SCORE>
-13.6627

>  <SCORE.INTER>
-11.9522

>  <SCORE.INTER.CONST>
1

>  <SCORE.INTER.POLAR>
-2.58664

>  <SCORE.INTER.ROT>
3

>  <SCORE.INTER.SOLV>
14.911

>  <SCORE.INTER.VDW>
-9.91631

>  <SCORE.INTER.norm>
-0.543281

>  <SCORE.INTRA>
-1.71048

>  <SCORE.INTRA.DIHEDRAL>
-3.25826

>  <SCORE.INTRA.DIHEDRAL.0>
4.88619

>  <SCORE.INTRA.POLAR>
0

>  <SCORE.INTRA.POLAR.0>
0

>  <SCORE.INTRA.REPUL>
0

>  <SCORE.INTRA.REPUL.0>
0

>  <SCORE.INTRA.SOLV>
-0.504459

>  <SCORE.INTRA.SOLV.lig_0>
-73.8187

>  <SCORE.INTRA.VDW>
0.170875

>  <SCORE.INTRA.VDW.0>
-1.32335

>  <SCORE.INTRA.norm>
-0.0777493

>  <SCORE.RESTR>
0

>  <SCORE.RESTR.CAVITY>
0

>  <SCORE.RESTR.norm>
0

>  <SCORE.SYSTEM>
0

>  <SCORE.SYSTEM.CONST>
0

>  <SCORE.SYSTEM.DIHEDRAL>
0

>  <SCORE.SYSTEM.SOLV>
0

>  <SCORE.SYSTEM.norm>
0

>  <SCORE.heavy>
22

>  <SCORE.norm>
-0.62103

>  <RMSD>
6.159

$$$$
2fcx_lig
 OpenBabel11021811433D
libRbt.so/2013.1/901 2013/11/27
 22 23  0  0  0  0  0  0  0  0999 V2000
   30.3670    4.7695   19.2100 N   0  0  0  0  0  0  0  0  0  0  0  0
   28.7444    6.9681   15.1346 N   0  0  0  0  0  0  0  0  0  0  0  0
   29.0076   12.5339   15.9599 N   0  0  0  0  0  0  0  0  0  0  0  0
   27.0330    8.3232   19.4837 O   0  0  0  0  0  0  0  0  0  0  0  0
   27.4744    7.2028   18.7122 C   0  0  2  0  0  0  0  0  0  0  0  0
   24.0417    9.1689   15.9372 N   0  0  0  0  0  0  0  0  0  0  0  0
   28.2221    6.0340   20.6701 O   0  0  0  0  0  0  0  0  0  0  0  0
   28.6642    6.5304   19.4011 C   0  0  1  0  0  0  0  0  0  0  0  0
   26.6216    8.1109   16.6196 O   0  0  0  0  0  0  0  0  0  0  0  0
   29.1960    5.3711   18.5553 C   0  0  1  0  0  0  0  0  0  0  0  0
   27.4956   10.2773   16.8063 O   0  0  0  0  0  0  0  0  0  0  0  0
   29.5973    5.8621   17.1602 C   0  0  0  0  0  0  0  0  0  0  0  0
   27.6807   10.7437   13.1416 O   0  0  0  0  0  0  0  0  0  0  0  0
   28.3792    6.4875   16.4747 C   0  0  1  0  0  0  0  0  0  0  0  0
   24.8855   10.5096   13.5447 O   0  0  0  0  0  0  0  0  0  0  0  0
   27.8108    7.6555   17.2862 C   0  0  2  0  0  0  0  0  0  0  0  0
   26.2976    9.4842   16.8972 C   0  0  1  0  0  0  0  0  0  0  0  0
   28.0932   10.2901   15.4942 C   0  0  2  0  0  0  0  0  0  0  0  0
   29.3359   11.1830   15.4806 C   0  0  0  0  0  0  0  0  0  0  0  0
   27.1069   10.8208   14.4502 C   0  0  2  0  0  0  0  0  0  0  0  0
   25.8312    9.9772   14.4740 C   0  0  1  0  0  0  0  0  0  0  0  0
   25.2566    9.9936   15.8930 C   0  0  1  0  0  0  0  0  0  0  0  0
  5  4  1  1  0  0  0
  5  8  1  0  0  0  0
  5 16  1  0  0  0  0
  8  7  1  1  0  0  0
  8 10  1  0  0  0  0
 10  1  1  1  0  0  0
 10 12  1  0  0  0  0
 11 18  1  0  0  0  0
 12 14  1  0  0  0  0
 14  2  1  6  0  0  0
 14 16  1  0  0  0  0
 16  9  1  6  0  0  0
 17  9  1  6  0  0  0
 17 11  1  0  0  0  0
 17 22  1  0  0  0  0
 18 19  1  1  0  0  0
 18 20  1  0  0  0  0
 19  3  1  0  0  0  0
 20 13  1  6  0  0  0
 20 21  1  0  0  0  0
 21 15  1  6  0  0  0
 21 22  1  0  0  0  0
 22  6  1  6  0  0  0
M  END
>  <CHROM.1>
84.39636436,44.78108344,-54.91658528,27.58014579,8.58161868,16.67065380,-1.23443809
0.13758278,-0.79066671

>  <Name>
2fcx_lig

>  <RI>
3.23342e+07

>  <Rbt.Current_Directory>
/home/itssahil/PROJECTS/Mol_Feturizer/New_Systems/rnas/2fcx

>  <Rbt.Executable>
rbdock ($Id: //depot/dev/client3/rdock/2013.1/src/exe/rbdock.cxx#4 $)

>  <Rbt.Library>
libRbt.so (2013.1, Build901 2013/11/27)

>  <Rbt.Parameter_File>
/export/apps/rDock/src/rDock_2013.1_src/data/scripts/dock_solv.prm

>  <Rbt.Receptor>
prm/pocket_docking_5.prm

>  <SCORE>
-12.3473

>  <SCORE.INTER>
-12.6639

>  <SCORE.INTER.CONST>
1

>  <SCORE.INTER.POLAR>
-0.916515

>  <SCORE.INTER.ROT>
3

>  <SCORE.INTER.SOLV>
19.0338

>  <SCORE.INTER.VDW>
-17.3321

>  <SCORE.INTER.norm>
-0.575632

>  <SCORE.INTRA>
0.316653

>  <SCORE.INTRA.DIHEDRAL>
-1.14566

>  <SCORE.INTRA.DIHEDRAL.0>
4.88619

>  <SCORE.INTRA.POLAR>
0

>  <SCORE.INTRA.POLAR.0>
0

>  <SCORE.INTRA.REPUL>
0

>  <SCORE.INTRA.REPUL.0>
0

>  <SCORE.INTRA.SOLV>
1.66904

>  <SCORE.INTRA.SOLV.lig_0>
-73.8187

>  <SCORE.INTRA.VDW>
0.0549608

>  <SCORE.INTRA.VDW.0>
-1.32335

>  <SCORE.INTRA.norm>
0.0143933

>  <SCORE.RESTR>
0

>  <SCORE.RESTR.CAVITY>
0

>  <SCORE.RESTR.norm>
0

>  <SCORE.SYSTEM>
0

>  <SCORE.SYSTEM.CONST>
0

>  <SCORE.SYSTEM.DIHEDRAL>
0

>  <SCORE.SYSTEM.SOLV>
0

>  <SCORE.SYSTEM.norm>
0

>  <SCORE.heavy>
22

>  <SCORE.norm>
-0.561239

>  <RMSD>
6.171

$$$$
2fcx_lig
 OpenBabel11021811433D
libRbt.so/2013.1/901 2013/11/27
 22 23  0  0  0  0  0  0  0  0999 V2000
   29.9686   10.3609   16.3532 N   0  0  0  0  0  0  0  0  0  0  0  0
   26.3314    9.2716   13.2453 N   0  0  0  0  0  0  0  0  0  0  0  0
   28.3070    6.2045   10.1259 N   0  0  0  0  0  0  0  0  0  0  0  0
   30.6064   10.8512   11.5395 O   0  0  0  0  0  0  0  0  0  0  0  0
   29.6633   10.9911   12.6055 C   0  0  2  0  0  0  0  0  0  0  0  0
   27.6560   12.4865    9.0238 N   0  0  0  0  0  0  0  0  0  0  0  0
   31.3804   11.6058   14.1650 O   0  0  0  0  0  0  0  0  0  0  0  0
   30.3313   10.6564   13.9412 C   0  0  1  0  0  0  0  0  0  0  0  0
   27.7421   10.5785   11.1668 O   0  0  0  0  0  0  0  0  0  0  0  0
   29.3197   10.7321   15.0871 C   0  0  1  0  0  0  0  0  0  0  0  0
   28.4839    8.9121    9.6956 O   0  0  0  0  0  0  0  0  0  0  0  0
   28.1423    9.7856   14.8295 C   0  0  0  0  0  0  0  0  0  0  0  0
   25.1262    8.4250    8.2224 O   0  0  0  0  0  0  0  0  0  0  0  0
   27.4630   10.1707   13.5124 C   0  0  1  0  0  0  0  0  0  0  0  0
   25.7049   11.0895    7.4504 O   0  0  0  0  0  0  0  0  0  0  0  0
   28.4386   10.1092   12.3333 C   0  0  2  0  0  0  0  0  0  0  0  0
   28.4471   10.3306    9.9383 C   0  0  1  0  0  0  0  0  0  0  0  0
   27.1850    8.3141    9.5106 C   0  0  2  0  0  0  0  0  0  0  0  0
   27.3209    6.8171    9.2233 C   0  0  0  0  0  0  0  0  0  0  0  0
   26.4463    8.9649    8.3380 C   0  0  2  0  0  0  0  0  0  0  0  0
   26.3381   10.4724    8.5729 C   0  0  1  0  0  0  0  0  0  0  0  0
   27.7450   11.0414    8.7749 C   0  0  1  0  0  0  0  0  0  0  0  0
  5  4  1  6  0  0  0
  5  8  1  0  0  0  0
  5 16  1  0  0  0  0
  8  7  1  1  0  0  0
  8 10  1  0  0  0  0
 10  1  1  1  0  0  0
 10 12  1  0  0  0  0
 11 18  1  0  0  0  0
 12 14  1  0  0  0  0
 14  2  1  6  0  0  0
 14 16  1  0  0  0  0
 16  9  1  6  0  0  0
 17  9  1  1  0  0  0
 17 11  1  0  0  0  0
 17 22  1  0  0  0  0
 18 19  1  6  0  0  0
 18 20  1  0  0  0  0
 19  3  1  0  0  0  0
 20 13  1  1  0  0  0
 20 21  1  0  0  0  0
 21 15  1  6  0  0  0
 21 22  1  0  0  0  0
 22  6  1  1  0  0  0
M  END
>  <CHROM.1>
71.17489654,67.78031883,43.78276942,28.09922708,9.92093292,11.22293443,0.43575593
1.03673437,2.42562452

>  <Name>
2fcx_lig

>  <RI>
0

>  <Rbt.Current_Directory>
/home/itssahil/PROJECTS/Mol_Feturizer/New_Systems/rnas/2fcx

>  <Rbt.Executable>
rbdock ($Id: //depot/dev/client3/rdock/2013.1/src/exe/rbdock.cxx#4 $)

>  <Rbt.Library>
libRbt.so (2013.1, Build901 2013/11/27)

>  <Rbt.Parameter_File>
/export/apps/rDock/src/rDock_2013.1_src/data/scripts/dock_solv.prm

>  <Rbt.Receptor>
prm/pocket_docking_6.prm

>  <SCORE>
-13.6793

>  <SCORE.INTER>
-12.254

>  <SCORE.INTER.CONST>
1

>  <SCORE.INTER.POLAR>
-2.66266

>  <SCORE.INTER.ROT>
3

>  <SCORE.INTER.SOLV>
15.238

>  <SCORE.INTER.VDW>
-9.97311

>  <SCORE.INTER.norm>
-0.556999

>  <SCORE.INTRA>
-1.42536

>  <SCORE.INTRA.DIHEDRAL>
-3.08271

>  <SCORE.INTRA.DIHEDRAL.0>
4.88619

>  <SCORE.INTRA.POLAR>
0

>  <SCORE.INTRA.POLAR.0>
0

>  <SCORE.INTRA.REPUL>
0

>  <SCORE.INTRA.REPUL.0>
0

>  <SCORE.INTRA.SOLV>
-0.551993

>  <SCORE.INTRA.SOLV.lig_0>
-73.8187

>  <SCORE.INTRA.VDW>
0.391993

>  <SCORE.INTRA.VDW.0>
-1.32335

>  <SCORE.INTRA.norm>
-0.0647891

>  <SCORE.RESTR>
0

>  <SCORE.RESTR.CAVITY>
0

>  <SCORE.RESTR.norm>
0

>  <SCORE.SYSTEM>
0

>  <SCORE.SYSTEM.CONST>
0

>  <SCORE.SYSTEM.DIHEDRAL>
0

>  <SCORE.SYSTEM.SOLV>
0

>  <SCORE.SYSTEM.norm>
0

>  <SCORE.heavy>
22

>  <SCORE.norm>
-0.621788

>  <RMSD>
6.174

$$$$
2fcx_lig
 OpenBabel11021811433D
libRbt.so/2013.1/901 2013/11/27
 22 23  0  0  0  0  0  0  0  0999 V2000
   27.1272    6.8833   20.0245 N   0  0  0  0  0  0  0  0  0  0  0  0
   28.1434    6.7190   15.2271 N   0  0  0  0  0  0  0  0  0  0  0  0
   28.1140    6.9657   10.8121 N   0  0  0  0  0  0  0  0  0  0  0  0
   28.6509   10.8871   17.6865 O   0  0  0  0  0  0  0  0  0  0  0  0
   27.8556    9.7046   17.5659 C   0  0  2  0  0  0  0  0  0  0  0  0
   29.9833   11.5584   14.1905 N   0  0  0  0  0  0  0  0  0  0  0  0
   27.2535    9.7636   19.8880 O   0  0  0  0  0  0  0  0  0  0  0  0
   27.8596    8.9352   18.8889 C   0  0  1  0  0  0  0  0  0  0  0  0
   28.1744    9.5495   15.1564 O   0  0  0  0  0  0  0  0  0  0  0  0
   27.0712    7.6299   18.7591 C   0  0  1  0  0  0  0  0  0  0  0  0
   28.6390    8.1944   13.3019 O   0  0  0  0  0  0  0  0  0  0  0  0
   27.6490    6.7610   17.6369 C   0  0  0  0  0  0  0  0  0  0  0  0
   26.5525   10.2320   11.0268 O   0  0  0  0  0  0  0  0  0  0  0  0
   27.5903    7.5351   16.3171 C   0  0  1  0  0  0  0  0  0  0  0  0
   28.5837   12.0750   11.7393 O   0  0  0  0  0  0  0  0  0  0  0  0
   28.3677    8.8522   16.3984 C   0  0  2  0  0  0  0  0  0  0  0  0
   29.1584    9.2284   14.1583 C   0  0  1  0  0  0  0  0  0  0  0  0
   27.4642    8.5807   12.5606 C   0  0  2  0  0  0  0  0  0  0  0  0
   27.0039    7.4378   11.6531 C   0  0  0  0  0  0  0  0  0  0  0  0
   27.7483    9.8055   11.6868 C   0  0  2  0  0  0  0  0  0  0  0  0
   28.2587   10.9522   12.5610 C   0  0  1  0  0  0  0  0  0  0  0  0
   29.4938   10.4739   13.3288 C   0  0  1  0  0  0  0  0  0  0  0  0
  5  4  1  1  0  0  0
  5  8  1  0  0  0  0
  5 16  1  0  0  0  0
  8  7  1  1  0  0  0
  8 10  1  0  0  0  0
 10  1  1  1  0  0  0
 10 12  1  0  0  0  0
 11 18  1  0  0  0  0
 12 14  1  0  0  0  0
 14  2  1  6  0  0  0
 14 16  1  0  0  0  0
 16  9  1  6  0  0  0
 17  9  1  1  0  0  0
 17 11  1  0  0  0  0
 17 22  1  0  0  0  0
 18 19  1  6  0  0  0
 18 20  1  0  0  0  0
 19  3  1  0  0  0  0
 20 13  1  1  0  0  0
 20 21  1  0  0  0  0
 21 15  1  6  0  0  0
 21 22  1  0  0  0  0
 22  6  1  1  0  0  0
M  END
>  <CHROM.1>
149.77270567,95.54490489,-52.80231629,28.02974402,9.07011055,15.01079479
1.79499013,1.29108361,1.53357561

>  <Name>
2fcx_lig

>  <RI>
3.23342e+07

>  <Rbt.Current_Directory>
/home/itssahil/PROJECTS/Mol_Feturizer/New_Systems/rnas/2fcx

>  <Rbt.Executable>
rbdock ($Id: //depot/dev/client3/rdock/2013.1/src/exe/rbdock.cxx#4 $)

>  <Rbt.Library>
libRbt.so (2013.1, Build901 2013/11/27)

>  <Rbt.Parameter_File>
/export/apps/rDock/src/rDock_2013.1_src/data/scripts/dock_solv.prm

>  <Rbt.Receptor>
prm/pocket_docking_5.prm

>  <SCORE>
-9.89563

>  <SCORE.INTER>
-13.535

>  <SCORE.INTER.CONST>
1

>  <SCORE.INTER.POLAR>
-2.05786

>  <SCORE.INTER.ROT>
3

>  <SCORE.INTER.SOLV>
15.6804

>  <SCORE.INTER.VDW>
-12.9906

>  <SCORE.INTER.norm>
-0.615227

>  <SCORE.INTRA>
3.63935

>  <SCORE.INTRA.DIHEDRAL>
3.57455

>  <SCORE.INTRA.DIHEDRAL.0>
4.88619

>  <SCORE.INTRA.POLAR>
0

>  <SCORE.INTRA.POLAR.0>
0

>  <SCORE.INTRA.REPUL>
0

>  <SCORE.INTRA.REPUL.0>
0

>  <SCORE.INTRA.SOLV>
3.38832

>  <SCORE.INTRA.SOLV.lig_0>
-73.8187

>  <SCORE.INTRA.VDW>
0.157918

>  <SCORE.INTRA.VDW.0>
-1.32335

>  <SCORE.INTRA.norm>
0.165425

>  <SCORE.RESTR>
0

>  <SCORE.RESTR.CAVITY>
0

>  <SCORE.RESTR.norm>
0

>  <SCORE.SYSTEM>
0

>  <SCORE.SYSTEM.CONST>
0

>  <SCORE.SYSTEM.DIHEDRAL>
0

>  <SCORE.SYSTEM.SOLV>
0

>  <SCORE.SYSTEM.norm>
0

>  <SCORE.heavy>
22

>  <SCORE.norm>
-0.449801

>  <RMSD>
6.176

$$$$
2fcx_lig
 OpenBabel11021811433D
libRbt.so/2013.1/901 2013/11/27
 22 23  0  0  0  0  0  0  0  0999 V2000
   26.2514    7.2433   17.4298 N   0  0  0  0  0  0  0  0  0  0  0  0
   25.3821    9.0011   12.9322 N   0  0  0  0  0  0  0  0  0  0  0  0
   32.0488   12.3886   14.7433 N   0  0  0  0  0  0  0  0  0  0  0  0
   29.9577    8.4732   14.5024 O   0  0  0  0  0  0  0  0  0  0  0  0
   28.6301    8.8227   14.9035 C   0  0  2  0  0  0  0  0  0  0  0  0
   26.8973   11.5696   10.8006 N   0  0  0  0  0  0  0  0  0  0  0  0
   29.0072    8.0528   17.1447 O   0  0  0  0  0  0  0  0  0  0  0  0
   28.1524    7.8778   16.0086 C   0  0  1  0  0  0  0  0  0  0  0  0
   28.0823    9.8354   12.7574 O   0  0  0  0  0  0  0  0  0  0  0  0
   26.7072    8.1912   16.4025 C   0  0  1  0  0  0  0  0  0  0  0  0
   28.4347   11.6498   14.1981 O   0  0  0  0  0  0  0  0  0  0  0  0
   25.7835    8.0937   15.1836 C   0  0  0  0  0  0  0  0  0  0  0  0
   31.3300   12.8944   12.2616 O   0  0  0  0  0  0  0  0  0  0  0  0
   26.2544    9.0813   14.1123 C   0  0  1  0  0  0  0  0  0  0  0  0
   29.2215   13.2026   10.3936 O   0  0  0  0  0  0  0  0  0  0  0  0
   27.6992    8.8063   13.6849 C   0  0  2  0  0  0  0  0  0  0  0  0
   27.6161   11.1445   13.1272 C   0  0  1  0  0  0  0  0  0  0  0  0
   29.8203   11.8309   13.8430 C   0  0  2  0  0  0  0  0  0  0  0  0
   30.6056   12.4030   15.0253 C   0  0  0  0  0  0  0  0  0  0  0  0
   29.9595   12.7938   12.6607 C   0  0  2  0  0  0  0  0  0  0  0  0
   29.1434   12.2735   11.4763 C   0  0  1  0  0  0  0  0  0  0  0  0
   27.6903   12.0903   11.9223 C   0  0  1  0  0  0  0  0  0  0  0  0
  5  4  1  6  0  0  0
  5  8  1  0  0  0  0
  5 16  1  0  0  0  0
  8  7  1  1  0  0  0
  8 10  1  0  0  0  0
 10  1  1  1  0  0  0
 10 12  1  0  0  0  0
 11 18  1  0  0  0  0
 12 14  1  0  0  0  0
 14  2  1  6  0  0  0
 14 16  1  0  0  0  0
 16  9  1  6  0  0  0
 17  9  1  6  0  0  0
 17 11  1  0  0  0  0
 17 22  1  0  0  0  0
 18 19  1  1  0  0  0
 18 20  1  0  0  0  0
 19  3  1  0  0  0  0
 20 13  1  6  0  0  0
 20 21  1  0  0  0  0
 21 15  1  6  0  0  0
 21 22  1  0  0  0  0
 22  6  1  6  0  0  0
M  END
>  <CHROM.1>
-79.67332308,76.14401997,170.97297561,28.43792702,10.36564813,13.87622334
-2.05133804,-0.48643170,-0.91788803

>  <Name>
2fcx_lig

>  <RI>
0

>  <Rbt.Current_Directory>
/home/itssahil/PROJECTS/Mol_Feturizer/New_Systems/rnas/2fcx

>  <Rbt.Executable>
rbdock ($Id: //depot/dev/client3/rdock/2013.1/src/exe/rbdock.cxx#4 $)

>  <Rbt.Library>
libRbt.so (2013.1, Build901 2013/11/27)

>  <Rbt.Parameter_File>
/export/apps/rDock/src/rDock_2013.1_src/data/scripts/dock_solv.prm

>  <Rbt.Receptor>
prm/pocket_docking_2.prm

>  <SCORE>
-0.722255

>  <SCORE.INTER>
-4.30534

>  <SCORE.INTER.CONST>
1

>  <SCORE.INTER.POLAR>
-0.450098

>  <SCORE.INTER.ROT>
3

>  <SCORE.INTER.SOLV>
14.0768

>  <SCORE.INTER.VDW>
-11.6622

>  <SCORE.INTER.norm>
-0.195697

>  <SCORE.INTRA>
2.42418

>  <SCORE.INTRA.DIHEDRAL>
-1.62642

>  <SCORE.INTRA.DIHEDRAL.0>
4.88619

>  <SCORE.INTRA.POLAR>
0

>  <SCORE.INTRA.POLAR.0>
0

>  <SCORE.INTRA.REPUL>
0

>  <SCORE.INTRA.REPUL.0>
0

>  <SCORE.INTRA.SOLV>
2.15746

>  <SCORE.INTRA.SOLV.lig_0>
-73.8187

>  <SCORE.INTRA.VDW>
2.15866

>  <SCORE.INTRA.VDW.0>
-1.32335

>  <SCORE.INTRA.norm>
0.11019

>  <SCORE.RESTR>
1.15891

>  <SCORE.RESTR.CAVITY>
1.15891

>  <SCORE.RESTR.norm>
0.0526775

>  <SCORE.SYSTEM>
0

>  <SCORE.SYSTEM.CONST>
0

>  <SCORE.SYSTEM.DIHEDRAL>
0

>  <SCORE.SYSTEM.SOLV>
0

>  <SCORE.SYSTEM.norm>
0

>  <SCORE.heavy>
22

>  <SCORE.norm>
-0.0328298

>  <RMSD>
6.178

$$$$
2fcx_lig
 OpenBabel11021811433D
libRbt.so/2013.1/901 2013/11/27
 22 23  0  0  0  0  0  0  0  0999 V2000
   27.0510    6.8320   20.1674 N   0  0  0  0  0  0  0  0  0  0  0  0
   28.1538    6.6951   15.3883 N   0  0  0  0  0  0  0  0  0  0  0  0
   28.1218    7.0465   10.9166 N   0  0  0  0  0  0  0  0  0  0  0  0
   28.6920   10.8291   17.8983 O   0  0  0  0  0  0  0  0  0  0  0  0
   27.8773    9.6629   17.7511 C   0  0  2  0  0  0  0  0  0  0  0  0
   30.1263   11.4806   14.4234 N   0  0  0  0  0  0  0  0  0  0  0  0
   27.2330    9.7107   20.0621 O   0  0  0  0  0  0  0  0  0  0  0  0
   27.8424    8.8807   19.0662 C   0  0  1  0  0  0  0  0  0  0  0  0
   28.2384    9.5251   15.3466 O   0  0  0  0  0  0  0  0  0  0  0  0
   27.0325    7.5917   18.9088 C   0  0  1  0  0  0  0  0  0  0  0  0
   28.6792    8.1737   13.4834 O   0  0  0  0  0  0  0  0  0  0  0  0
   27.6151    6.7231   17.7888 C   0  0  0  0  0  0  0  0  0  0  0  0
   26.6911   10.3046   11.2055 O   0  0  0  0  0  0  0  0  0  0  0  0
   27.5955    7.5109   16.4759 C   0  0  1  0  0  0  0  0  0  0  0  0
   28.7752   12.0697   11.9613 O   0  0  0  0  0  0  0  0  0  0  0  0
   28.3955    8.8124   16.5849 C   0  0  2  0  0  0  0  0  0  0  0  0
   29.2230    9.1806   14.3568 C   0  0  1  0  0  0  0  0  0  0  0  0
   27.5273    8.6076   12.7324 C   0  0  2  0  0  0  0  0  0  0  0  0
   27.0394    7.4903   11.8075 C   0  0  0  0  0  0  0  0  0  0  0  0
   27.8636    9.8307   11.8751 C   0  0  2  0  0  0  0  0  0  0  0  0
   28.4020   10.9504   12.7673 C   0  0  1  0  0  0  0  0  0  0  0  0
   29.6107   10.4223   13.5445 C   0  0  1  0  0  0  0  0  0  0  0  0
  5  4  1  1  0  0  0
  5  8  1  0  0  0  0
  5 16  1  0  0  0  0
  8  7  1  1  0  0  0
  8 10  1  0  0  0  0
 10  1  1  1  0  0  0
 10 12  1  0  0  0  0
 11 18  1  0  0  0  0
 12 14  1  0  0  0  0
 14  2  1  6  0  0  0
 14 16  1  0  0  0  0
 16  9  1  6  0  0  0
 17  9  1  1  0  0  0
 17 11  1  0  0  0  0
 17 22  1  0  0  0  0
 18 19  1  6  0  0  0
 18 20  1  0  0  0  0
 19  3  1  0  0  0  0
 20 13  1  1  0  0  0
 20 21  1  0  0  0  0
 21 15  1  6  0  0  0
 21 22  1  0  0  0  0
 22  6  1  1  0  0  0
M  END
>  <CHROM.1>
150.64592569,95.74515749,-56.31668416,28.07816343,9.05254458,15.19046686
1.83492114,1.26072965,1.50690523

>  <Name>
2fcx_lig

>  <RI>
3.23342e+07

>  <Rbt.Current_Directory>
/home/itssahil/PROJECTS/Mol_Feturizer/New_Systems/rnas/2fcx

>  <Rbt.Executable>
rbdock ($Id: //depot/dev/client3/rdock/2013.1/src/exe/rbdock.cxx#4 $)

>  <Rbt.Library>
libRbt.so (2013.1, Build901 2013/11/27)

>  <Rbt.Parameter_File>
/export/apps/rDock/src/rDock_2013.1_src/data/scripts/dock_solv.prm

>  <Rbt.Receptor>
prm/pocket_docking_5.prm

>  <SCORE>
-9.7617

>  <SCORE.INTER>
-13.3777

>  <SCORE.INTER.CONST>
1

>  <SCORE.INTER.POLAR>
-2.04344

>  <SCORE.INTER.ROT>
3

>  <SCORE.INTER.SOLV>
16.0391

>  <SCORE.INTER.VDW>
-13.0534

>  <SCORE.INTER.norm>
-0.608078

>  <SCORE.INTRA>
3.61601

>  <SCORE.INTRA.DIHEDRAL>
3.31195

>  <SCORE.INTRA.DIHEDRAL.0>
4.88619

>  <SCORE.INTRA.POLAR>
0

>  <SCORE.INTRA.POLAR.0>
0

>  <SCORE.INTRA.REPUL>
0

>  <SCORE.INTRA.REPUL.0>
0

>  <SCORE.INTRA.SOLV>
3.43109

>  <SCORE.INTRA.SOLV.lig_0>
-73.8187

>  <SCORE.INTRA.VDW>
0.244494

>  <SCORE.INTRA.VDW.0>
-1.32335

>  <SCORE.INTRA.norm>
0.164364

>  <SCORE.RESTR>
0

>  <SCORE.RESTR.CAVITY>
0

>  <SCORE.RESTR.norm>
0

>  <SCORE.SYSTEM>
0

>  <SCORE.SYSTEM.CONST>
0

>  <SCORE.SYSTEM.DIHEDRAL>
0

>  <SCORE.SYSTEM.SOLV>
0

>  <SCORE.SYSTEM.norm>
0

>  <SCORE.heavy>
22

>  <SCORE.norm>
-0.443714

>  <RMSD>
6.208

$$$$
2fcx_lig
 OpenBabel11021811433D
libRbt.so/2013.1/901 2013/11/27
 22 23  0  0  0  0  0  0  0  0999 V2000
   27.9463    9.0893   19.5504 N   0  0  0  0  0  0  0  0  0  0  0  0
   29.7208   11.3806   15.5912 N   0  0  0  0  0  0  0  0  0  0  0  0
   28.8164   14.2679   11.6256 N   0  0  0  0  0  0  0  0  0  0  0  0
   25.6962    8.6678   15.2401 O   0  0  0  0  0  0  0  0  0  0  0  0
   26.9721    8.7673   15.8785 C   0  0  2  0  0  0  0  0  0  0  0  0
   27.3366    7.8844   11.9383 N   0  0  0  0  0  0  0  0  0  0  0  0
   26.1955    7.5854   17.8171 O   0  0  0  0  0  0  0  0  0  0  0  0
   26.7936    8.8176   17.3978 C   0  0  1  0  0  0  0  0  0  0  0  0
   28.0287    9.8126   13.9493 O   0  0  0  0  0  0  0  0  0  0  0  0
   28.1436    8.9951   18.0965 C   0  0  1  0  0  0  0  0  0  0  0  0
   26.7384   11.4458   12.8723 O   0  0  0  0  0  0  0  0  0  0  0  0
   28.8437   10.2650   17.6010 C   0  0  0  0  0  0  0  0  0  0  0  0
   29.2635   11.9945   10.2257 O   0  0  0  0  0  0  0  0  0  0  0  0
   29.0525   10.1692   16.0871 C   0  0  1  0  0  0  0  0  0  0  0  0
   28.5012    9.3094    9.7366 O   0  0  0  0  0  0  0  0  0  0  0  0
   27.7257    9.9908   15.3430 C   0  0  2  0  0  0  0  0  0  0  0  0
   26.9012   10.0312   13.0839 C   0  0  1  0  0  0  0  0  0  0  0  0
   27.8521   12.0716   12.2037 C   0  0  2  0  0  0  0  0  0  0  0  0
   27.5787   13.5618   11.9888 C   0  0  0  0  0  0  0  0  0  0  0  0
   28.1022   11.4256   10.8383 C   0  0  2  0  0  0  0  0  0  0  0  0
   28.3302    9.9235   11.0153 C   0  0  1  0  0  0  0  0  0  0  0  0
   27.1226    9.3244   11.7410 C   0  0  1  0  0  0  0  0  0  0  0  0
  5  4  1  6  0  0  0
  5  8  1  0  0  0  0
  5 16  1  0  0  0  0
  8  7  1  1  0  0  0
  8 10  1  0  0  0  0
 10  1  1  1  0  0  0
 10 12  1  0  0  0  0
 11 18  1  0  0  0  0
 12 14  1  0  0  0  0
 14  2  1  6  0  0  0
 14 16  1  0  0  0  0
 16  9  1  6  0  0  0
 17  9  1  1  0  0  0
 17 11  1  0  0  0  0
 17 22  1  0  0  0  0
 18 19  1  6  0  0  0
 18 20  1  0  0  0  0
 19  3  1  0  0  0  0
 20 13  1  1  0  0  0
 20 21  1  0  0  0  0
 21 15  1  6  0  0  0
 21 22  1  0  0  0  0
 22  6  1  1  0  0  0
M  END
>  <CHROM.1>
77.18679626,81.13165312,165.75934258,27.79077806,10.20999172,14.05026198
-1.82951633,-1.14241773,-1.44026720

>  <Name>
2fcx_lig

>  <RI>
1.21945e+07

>  <Rbt.Current_Directory>
/home/itssahil/PROJECTS/Mol_Feturizer/New_Systems/rnas/2fcx

>  <Rbt.Executable>
rbdock ($Id: //depot/dev/client3/rdock/2013.1/src/exe/rbdock.cxx#4 $)

>  <Rbt.Library>
libRbt.so (2013.1, Build901 2013/11/27)

>  <Rbt.Parameter_File>
/export/apps/rDock/src/rDock_2013.1_src/data/scripts/dock_solv.prm

>  <Rbt.Receptor>
prm/pocket_docking_3.prm

>  <SCORE>
-5.21415

>  <SCORE.INTER>
-5.36609

>  <SCORE.INTER.CONST>
1

>  <SCORE.INTER.POLAR>
-0.640314

>  <SCORE.INTER.ROT>
3

>  <SCORE.INTER.SOLV>
8.44775

>  <SCORE.INTER.VDW>
-9.85893

>  <SCORE.INTER.norm>
-0.243913

>  <SCORE.INTRA>
0.150062

>  <SCORE.INTRA.DIHEDRAL>
-0.82295

>  <SCORE.INTRA.DIHEDRAL.0>
4.88619

>  <SCORE.INTRA.POLAR>
0

>  <SCORE.INTRA.POLAR.0>
0

>  <SCORE.INTRA.REPUL>
0

>  <SCORE.INTRA.REPUL.0>
0

>  <SCORE.INTRA.SOLV>
0.902147

>  <SCORE.INTRA.SOLV.lig_0>
-73.8187

>  <SCORE.INTRA.VDW>
0.110464

>  <SCORE.INTRA.VDW.0>
-1.32335

>  <SCORE.INTRA.norm>
0.006821

>  <SCORE.RESTR>
0.00187383

>  <SCORE.RESTR.CAVITY>
0.00187383

>  <SCORE.RESTR.norm>
8.51742e-05

>  <SCORE.SYSTEM>
0

>  <SCORE.SYSTEM.CONST>
0

>  <SCORE.SYSTEM.DIHEDRAL>
0

>  <SCORE.SYSTEM.SOLV>
0

>  <SCORE.SYSTEM.norm>
0

>  <SCORE.heavy>
22

>  <SCORE.norm>
-0.237007

>  <RMSD>
6.215

$$$$
2fcx_lig
 OpenBabel11021811433D
libRbt.so/2013.1/901 2013/11/27
 22 23  0  0  0  0  0  0  0  0999 V2000
   27.1341    6.2042   19.4526 N   0  0  0  0  0  0  0  0  0  0  0  0
   25.3921    8.8378   15.6971 N   0  0  0  0  0  0  0  0  0  0  0  0
   27.7508    7.4092   10.2213 N   0  0  0  0  0  0  0  0  0  0  0  0
   30.1145    7.6779   15.8799 O   0  0  0  0  0  0  0  0  0  0  0  0
   28.9821    8.0455   16.6724 C   0  0  2  0  0  0  0  0  0  0  0  0
   29.7593   11.5950   14.0289 N   0  0  0  0  0  0  0  0  0  0  0  0
   29.8094    6.8412   18.5760 O   0  0  0  0  0  0  0  0  0  0  0  0
   28.6833    6.9485   17.6970 C   0  0  1  0  0  0  0  0  0  0  0  0
   28.0445    9.4826   14.9441 O   0  0  0  0  0  0  0  0  0  0  0  0
   27.4317    7.2911   18.5083 C   0  0  1  0  0  0  0  0  0  0  0  0
   28.4997    8.2340   13.0140 O   0  0  0  0  0  0  0  0  0  0  0  0
   26.2284    7.4952   17.5817 C   0  0  0  0  0  0  0  0  0  0  0  0
   26.2845   10.3065   10.8977 O   0  0  0  0  0  0  0  0  0  0  0  0
   26.5343    8.6281   16.5979 C   0  0  1  0  0  0  0  0  0  0  0  0
   28.2745   12.1808   11.6442 O   0  0  0  0  0  0  0  0  0  0  0  0
   27.7818    8.3295   15.7611 C   0  0  2  0  0  0  0  0  0  0  0  0
   29.0096    9.2428   13.9054 C   0  0  1  0  0  0  0  0  0  0  0  0
   27.2924    8.6155   12.3242 C   0  0  2  0  0  0  0  0  0  0  0  0
   26.8437    7.5024   11.3749 C   0  0  0  0  0  0  0  0  0  0  0  0
   27.5118    9.8895   11.5038 C   0  0  2  0  0  0  0  0  0  0  0  0
   28.0095   11.0097   12.4187 C   0  0  1  0  0  0  0  0  0  0  0  0
   29.2808   10.5371   13.1288 C   0  0  1  0  0  0  0  0  0  0  0  0
  5  4  1  6  0  0  0
  5  8  1  0  0  0  0
  5 16  1  0  0  0  0
  8  7  1  1  0  0  0
  8 10  1  0  0  0  0
 10  1  1  1  0  0  0
 10 12  1  0  0  0  0
 11 18  1  0  0  0  0
 12 14  1  0  0  0  0
 14  2  1  6  0  0  0
 14 16  1  0  0  0  0
 16  9  1  6  0  0  0
 17  9  1  1  0  0  0
 17 11  1  0  0  0  0
 17 22  1  0  0  0  0
 18 19  1  6  0  0  0
 18 20  1  0  0  0  0
 19  3  1  0  0  0  0
 20 13  1  1  0  0  0
 20 21  1  0  0  0  0
 21 15  1  6  0  0  0
 21 22  1  0  0  0  0
 22  6  1  1  0  0  0
M  END
>  <CHROM.1>
72.14451915,62.10836287,-71.30075799,27.95679999,8.75196744,14.60342661,1.52533937
0.68582517,2.00797402

>  <Name>
2fcx_lig

>  <RI>
1.55453e+07

>  <Rbt.Current_Directory>
/home/itssahil/PROJECTS/Mol_Feturizer/New_Systems/rnas/2fcx

>  <Rbt.Executable>
rbdock ($Id: //depot/dev/client3/rdock/2013.1/src/exe/rbdock.cxx#4 $)

>  <Rbt.Library>
libRbt.so (2013.1, Build901 2013/11/27)

>  <Rbt.Parameter_File>
/export/apps/rDock/src/rDock_2013.1_src/data/scripts/dock_solv.prm

>  <Rbt.Receptor>
prm/pocket_docking_4.prm

>  <SCORE>
-11.6823

>  <SCORE.INTER>
-10.7608

>  <SCORE.INTER.CONST>
1

>  <SCORE.INTER.POLAR>
-1.13056

>  <SCORE.INTER.ROT>
3

>  <SCORE.INTER.SOLV>
13.2759

>  <SCORE.INTER.VDW>
-13.4306

>  <SCORE.INTER.norm>
-0.489126

>  <SCORE.INTRA>
-0.921498

>  <SCORE.INTRA.DIHEDRAL>
-3.69851

>  <SCORE.INTRA.DIHEDRAL.0>
4.88619

>  <SCORE.INTRA.POLAR>
0

>  <SCORE.INTRA.POLAR.0>
0

>  <SCORE.INTRA.REPUL>
0

>  <SCORE.INTRA.REPUL.0>
0

>  <SCORE.INTRA.SOLV>
0.786869

>  <SCORE.INTRA.SOLV.lig_0>
-73.8187

>  <SCORE.INTRA.VDW>
0.534321

>  <SCORE.INTRA.VDW.0>
-1.32335

>  <SCORE.INTRA.norm>
-0.0418863

>  <SCORE.RESTR>
0

>  <SCORE.RESTR.CAVITY>
0

>  <SCORE.RESTR.norm>
0

>  <SCORE.SYSTEM>
0

>  <SCORE.SYSTEM.CONST>
0

>  <SCORE.SYSTEM.DIHEDRAL>
0

>  <SCORE.SYSTEM.SOLV>
0

>  <SCORE.SYSTEM.norm>
0

>  <SCORE.heavy>
22

>  <SCORE.norm>
-0.531012

>  <RMSD>
6.240

$$$$
2fcx_lig
 OpenBabel11021811433D
libRbt.so/2013.1/901 2013/11/27
 22 23  0  0  0  0  0  0  0  0999 V2000
   27.8130    8.1018   18.7273 N   0  0  0  0  0  0  0  0  0  0  0  0
   27.7210    7.9283   13.8246 N   0  0  0  0  0  0  0  0  0  0  0  0
   28.0057    7.9964    9.4404 N   0  0  0  0  0  0  0  0  0  0  0  0
   29.9481   11.6123   16.0936 O   0  0  0  0  0  0  0  0  0  0  0  0
   28.8285   10.7244   16.1532 C   0  0  2  0  0  0  0  0  0  0  0  0
   30.2708   12.6113   12.5323 N   0  0  0  0  0  0  0  0  0  0  0  0
   28.7641   10.8212   18.5500 O   0  0  0  0  0  0  0  0  0  0  0  0
   28.8749    9.9114   17.4491 C   0  0  1  0  0  0  0  0  0  0  0  0
   28.5821   10.6242   13.7324 O   0  0  0  0  0  0  0  0  0  0  0  0
   27.7231    8.9049   17.4990 C   0  0  1  0  0  0  0  0  0  0  0  0
   28.8285    9.2379   11.8591 O   0  0  0  0  0  0  0  0  0  0  0  0
   27.7700    7.9721   16.2841 C   0  0  0  0  0  0  0  0  0  0  0  0
   26.4972   11.2456    9.8059 O   0  0  0  0  0  0  0  0  0  0  0  0
   27.6747    8.8054   15.0030 C   0  0  1  0  0  0  0  0  0  0  0  0
   28.5995   13.0931   10.2500 O   0  0  0  0  0  0  0  0  0  0  0  0
   28.8098    9.8293   14.9081 C   0  0  2  0  0  0  0  0  0  0  0  0
   29.4444   10.2838   12.6331 C   0  0  1  0  0  0  0  0  0  0  0  0
   27.5768    9.6162   11.2515 C   0  0  2  0  0  0  0  0  0  0  0  0
   27.0136    8.4603   10.4217 C   0  0  0  0  0  0  0  0  0  0  0  0
   27.7604   10.8258   10.3310 C   0  0  2  0  0  0  0  0  0  0  0  0
   28.3695   11.9848   11.1219 C   0  0  1  0  0  0  0  0  0  0  0  0
   29.6840   11.5147   11.7503 C   0  0  1  0  0  0  0  0  0  0  0  0
  5  4  1  6  0  0  0
  5  8  1  0  0  0  0
  5 16  1  0  0  0  0
  8  7  1  1  0  0  0
  8 10  1  0  0  0  0
 10  1  1  1  0  0  0
 10 12  1  0  0  0  0
 11 18  1  0  0  0  0
 12 14  1  0  0  0  0
 14  2  1  6  0  0  0
 14 16  1  0  0  0  0
 16  9  1  6  0  0  0
 17  9  1  1  0  0  0
 17 11  1  0  0  0  0
 17 22  1  0  0  0  0
 18 19  1  6  0  0  0
 18 20  1  0  0  0  0
 19  3  1  0  0  0  0
 20 13  1  1  0  0  0
 20 21  1  0  0  0  0
 21 15  1  6  0  0  0
 21 22  1  0  0  0  0
 22  6  1  1  0  0  0
M  END
>  <CHROM.1>
135.52424889,88.37331259,-54.41051477,28.39192193,10.12977691,13.60390830
1.44114691,1.12215468,1.85253459

>  <Name>
2fcx_lig

>  <RI>
1.55453e+07

>  <Rbt.Current_Directory>
/home/itssahil/PROJECTS/Mol_Feturizer/New_Systems/rnas/2fcx

>  <Rbt.Executable>
rbdock ($Id: //depot/dev/client3/rdock/2013.1/src/exe/rbdock.cxx#4 $)

>  <Rbt.Library>
libRbt.so (2013.1, Build901 2013/11/27)

>  <Rbt.Parameter_File>
/export/apps/rDock/src/rDock_2013.1_src/data/scripts/dock_solv.prm

>  <Rbt.Receptor>
prm/pocket_docking_4.prm

>  <SCORE>
-11.0461

>  <SCORE.INTER>
-14.5735

>  <SCORE.INTER.CONST>
1

>  <SCORE.INTER.POLAR>
-2.36628

>  <SCORE.INTER.ROT>
3

>  <SCORE.INTER.SOLV>
10.0387

>  <SCORE.INTER.VDW>
-10.7743

>  <SCORE.INTER.norm>
-0.662432

>  <SCORE.INTRA>
3.52738

>  <SCORE.INTRA.DIHEDRAL>
4.59783

>  <SCORE.INTRA.DIHEDRAL.0>
4.88619

>  <SCORE.INTRA.POLAR>
0

>  <SCORE.INTRA.POLAR.0>
0

>  <SCORE.INTRA.REPUL>
0

>  <SCORE.INTRA.REPUL.0>
0

>  <SCORE.INTRA.SOLV>
3.54294

>  <SCORE.INTRA.SOLV.lig_0>
-73.8187

>  <SCORE.INTRA.VDW>
-0.543006

>  <SCORE.INTRA.VDW.0>
-1.32335

>  <SCORE.INTRA.norm>
0.160336

>  <SCORE.RESTR>
0

>  <SCORE.RESTR.CAVITY>
0

>  <SCORE.RESTR.norm>
0

>  <SCORE.SYSTEM>
0

>  <SCORE.SYSTEM.CONST>
0

>  <SCORE.SYSTEM.DIHEDRAL>
0

>  <SCORE.SYSTEM.SOLV>
0

>  <SCORE.SYSTEM.norm>
0

>  <SCORE.heavy>
22

>  <SCORE.norm>
-0.502096

>  <RMSD>
6.241

$$$$
2fcx_lig
 OpenBabel11021811433D
libRbt.so/2013.1/901 2013/11/27
 22 23  0  0  0  0  0  0  0  0999 V2000
   27.8127    7.5504   19.6584 N   0  0  0  0  0  0  0  0  0  0  0  0
   26.3270   10.5333   16.0570 N   0  0  0  0  0  0  0  0  0  0  0  0
   27.5816   13.6685   12.2682 N   0  0  0  0  0  0  0  0  0  0  0  0
   28.3248    6.2265   14.9890 O   0  0  0  0  0  0  0  0  0  0  0  0
   28.3758    7.3328   15.8940 C   0  0  2  0  0  0  0  0  0  0  0  0
   26.0836    7.8628   12.1260 N   0  0  0  0  0  0  0  0  0  0  0  0
   29.1779    5.9490   17.6829 O   0  0  0  0  0  0  0  0  0  0  0  0
   28.1233    6.8497   17.3242 C   0  0  1  0  0  0  0  0  0  0  0  0
   27.7546    8.9562   14.1882 O   0  0  0  0  0  0  0  0  0  0  0  0
   28.1039    8.0292   18.2992 C   0  0  1  0  0  0  0  0  0  0  0  0
   27.1533   11.1337   13.5648 O   0  0  0  0  0  0  0  0  0  0  0  0
   27.0388    9.0510   17.8873 C   0  0  0  0  0  0  0  0  0  0  0  0
   29.3426   11.1091   10.5835 O   0  0  0  0  0  0  0  0  0  0  0  0
   27.3403    9.5531   16.4725 C   0  0  1  0  0  0  0  0  0  0  0  0
   27.4700    9.0848    9.9308 O   0  0  0  0  0  0  0  0  0  0  0  0
   27.3698    8.4054   15.4588 C   0  0  2  0  0  0  0  0  0  0  0  0
   26.7300    9.7579   13.5756 C   0  0  1  0  0  0  0  0  0  0  0  0
   28.3392   11.3772   12.7817 C   0  0  2  0  0  0  0  0  0  0  0  0
   28.6944   12.8656   12.7968 C   0  0  0  0  0  0  0  0  0  0  0  0
   28.1311   10.9460   11.3274 C   0  0  2  0  0  0  0  0  0  0  0  0
   27.7256    9.4718   11.2823 C   0  0  1  0  0  0  0  0  0  0  0  0
   26.4732    9.2793   12.1415 C   0  0  1  0  0  0  0  0  0  0  0  0
  5  4  1  6  0  0  0
  5  8  1  0  0  0  0
  5 16  1  0  0  0  0
  8  7  1  1  0  0  0
  8 10  1  0  0  0  0
 10  1  1  1  0  0  0
 10 12  1  0  0  0  0
 11 18  1  0  0  0  0
 12 14  1  0  0  0  0
 14  2  1  6  0  0  0
 14 16  1  0  0  0  0
 16  9  1  6  0  0  0
 17  9  1  6  0  0  0
 17 11  1  0  0  0  0
 17 22  1  0  0  0  0
 18 19  1  6  0  0  0
 18 20  1  0  0  0  0
 19  3  1  0  0  0  0
 20 13  1  6  0  0  0
 20 21  1  0  0  0  0
 21 15  1  6  0  0  0
 21 22  1  0  0  0  0
 22  6  1  1  0  0  0
M  END
>  <CHROM.1>
167.64066809,111.76240650,-58.50833371,27.72367162,9.30287555,14.34024782
1.10210333,-1.52796283,1.63092630

>  <Name>
2fcx_lig

>  <RI>
1.21945e+07

>  <Rbt.Current_Directory>
/home/itssahil/PROJECTS/Mol_Feturizer/New_Systems/rnas/2fcx

>  <Rbt.Executable>
rbdock ($Id: //depot/dev/client3/rdock/2013.1/src/exe/rbdock.cxx#4 $)

>  <Rbt.Library>
libRbt.so (2013.1, Build901 2013/11/27)

>  <Rbt.Parameter_File>
/export/apps/rDock/src/rDock_2013.1_src/data/scripts/dock_solv.prm

>  <Rbt.Receptor>
prm/pocket_docking_3.prm

>  <SCORE>
-3.75376

>  <SCORE.INTER>
-7.58214

>  <SCORE.INTER.CONST>
1

>  <SCORE.INTER.POLAR>
-1.27999

>  <SCORE.INTER.ROT>
3

>  <SCORE.INTER.SOLV>
10.8786

>  <SCORE.INTER.VDW>
-10.0143

>  <SCORE.INTER.norm>
-0.344643

>  <SCORE.INTRA>
3.81416

>  <SCORE.INTRA.DIHEDRAL>
2.72506

>  <SCORE.INTRA.DIHEDRAL.0>
4.88619

>  <SCORE.INTRA.POLAR>
0

>  <SCORE.INTRA.POLAR.0>
0

>  <SCORE.INTRA.REPUL>
0

>  <SCORE.INTRA.REPUL.0>
0

>  <SCORE.INTRA.SOLV>
2.83092

>  <SCORE.INTRA.SOLV.lig_0>
-73.8187

>  <SCORE.INTRA.VDW>
1.03617

>  <SCORE.INTRA.VDW.0>
-1.32335

>  <SCORE.INTRA.norm>
0.173371

>  <SCORE.RESTR>
0.0142253

>  <SCORE.RESTR.CAVITY>
0.0142253

>  <SCORE.RESTR.norm>
0.000646606

>  <SCORE.SYSTEM>
0

>  <SCORE.SYSTEM.CONST>
0

>  <SCORE.SYSTEM.DIHEDRAL>
0

>  <SCORE.SYSTEM.SOLV>
0

>  <SCORE.SYSTEM.norm>
0

>  <SCORE.heavy>
22

>  <SCORE.norm>
-0.170625

>  <RMSD>
6.251

$$$$
2fcx_lig
 OpenBabel11021811433D
libRbt.so/2013.1/901 2013/11/27
 22 23  0  0  0  0  0  0  0  0999 V2000
   27.0239    6.2287   19.3996 N   0  0  0  0  0  0  0  0  0  0  0  0
   25.4447    8.9300   15.6202 N   0  0  0  0  0  0  0  0  0  0  0  0
   27.7541    7.4160   10.2275 N   0  0  0  0  0  0  0  0  0  0  0  0
   30.1271    7.6364   15.9057 O   0  0  0  0  0  0  0  0  0  0  0  0
   28.9873    8.0317   16.6738 C   0  0  2  0  0  0  0  0  0  0  0  0
   29.9042   11.5601   14.0016 N   0  0  0  0  0  0  0  0  0  0  0  0
   29.7357    6.7946   18.5890 O   0  0  0  0  0  0  0  0  0  0  0  0
   28.6340    6.9382   17.6848 C   0  0  1  0  0  0  0  0  0  0  0  0
   28.1310    9.5036   14.9328 O   0  0  0  0  0  0  0  0  0  0  0  0
   27.3738    7.3117   18.4688 C   0  0  1  0  0  0  0  0  0  0  0  0
   28.5347    8.2375   13.0026 O   0  0  0  0  0  0  0  0  0  0  0  0
   26.1987    7.5545   17.5157 C   0  0  0  0  0  0  0  0  0  0  0  0
   26.3708   10.3733   10.8960 O   0  0  0  0  0  0  0  0  0  0  0  0
   26.5592    8.6834   16.5460 C   0  0  1  0  0  0  0  0  0  0  0  0
   28.4227   12.1866   11.6253 O   0  0  0  0  0  0  0  0  0  0  0  0
   27.8170    8.3541   15.7366 C   0  0  2  0  0  0  0  0  0  0  0  0
   29.0814    9.2319   13.8884 C   0  0  1  0  0  0  0  0  0  0  0  0
   27.3353    8.6548   12.3198 C   0  0  2  0  0  0  0  0  0  0  0  0
   26.8461    7.5541   11.3759 C   0  0  0  0  0  0  0  0  0  0  0  0
   27.5886    9.9197   11.4951 C   0  0  2  0  0  0  0  0  0  0  0  0
   28.1266   11.0259   12.4042 C   0  0  1  0  0  0  0  0  0  0  0  0
   29.3874   10.5156   13.1071 C   0  0  1  0  0  0  0  0  0  0  0  0
  5  4  1  6  0  0  0
  5  8  1  0  0  0  0
  5 16  1  0  0  0  0
  8  7  1  1  0  0  0
  8 10  1  0  0  0  0
 10  1  1  1  0  0  0
 10 12  1  0  0  0  0
 11 18  1  0  0  0  0
 12 14  1  0  0  0  0
 14  2  1  6  0  0  0
 14 16  1  0  0  0  0
 16  9  1  1  0  0  0
 17  9  1  1  0  0  0
 17 11  1  0  0  0  0
 17 22  1  0  0  0  0
 18 19  1  6  0  0  0
 18 20  1  0  0  0  0
 19  3  1  0  0  0  0
 20 13  1  1  0  0  0
 20 21  1  0  0  0  0
 21 15  1  6  0  0  0
 21 22  1  0  0  0  0
 22  6  1  1  0  0  0
M  END
>  <CHROM.1>
74.00372627,60.88372879,-70.40236283,27.99051560,8.76689895,14.58533903,1.54912679
0.65371510,1.99742371

>  <Name>
2fcx_lig

>  <RI>
4.08374e+07

>  <Rbt.Current_Directory>
/home/itssahil/PROJECTS/Mol_Feturizer/New_Systems/rnas/2fcx

>  <Rbt.Executable>
rbdock ($Id: //depot/dev/client3/rdock/2013.1/src/exe/rbdock.cxx#4 $)

>  <Rbt.Library>
libRbt.so (2013.1, Build901 2013/11/27)

>  <Rbt.Parameter_File>
/export/apps/rDock/src/rDock_2013.1_src/data/scripts/dock_solv.prm

>  <Rbt.Receptor>
prm/pocket_docking_7.prm

>  <SCORE>
-11.6438

>  <SCORE.INTER>
-10.6735

>  <SCORE.INTER.CONST>
1

>  <SCORE.INTER.POLAR>
-1.11704

>  <SCORE.INTER.ROT>
3

>  <SCORE.INTER.SOLV>
13.4433

>  <SCORE.INTER.VDW>
-13.4733

>  <SCORE.INTER.norm>
-0.48516

>  <SCORE.INTRA>
-0.970304

>  <SCORE.INTRA.DIHEDRAL>
-3.56214

>  <SCORE.INTRA.DIHEDRAL.0>
4.88619

>  <SCORE.INTRA.POLAR>
0

>  <SCORE.INTRA.POLAR.0>
0

>  <SCORE.INTRA.REPUL>
0

>  <SCORE.INTRA.REPUL.0>
0

>  <SCORE.INTRA.SOLV>
0.839514

>  <SCORE.INTRA.SOLV.lig_0>
-73.8187

>  <SCORE.INTRA.VDW>
0.391007

>  <SCORE.INTRA.VDW.0>
-1.32335

>  <SCORE.INTRA.norm>
-0.0441047

>  <SCORE.RESTR>
0

>  <SCORE.RESTR.CAVITY>
0

>  <SCORE.RESTR.norm>
0

>  <SCORE.SYSTEM>
0

>  <SCORE.SYSTEM.CONST>
0

>  <SCORE.SYSTEM.DIHEDRAL>
0

>  <SCORE.SYSTEM.SOLV>
0

>  <SCORE.SYSTEM.norm>
0

>  <SCORE.heavy>
22

>  <SCORE.norm>
-0.529265

>  <RMSD>
6.252

$$$$
2fcx_lig
 OpenBabel11021811433D
libRbt.so/2013.1/901 2013/11/27
 22 23  0  0  0  0  0  0  0  0999 V2000
   27.5035    7.9780   18.6122 N   0  0  0  0  0  0  0  0  0  0  0  0
   27.4268    7.6181   13.7194 N   0  0  0  0  0  0  0  0  0  0  0  0
   26.4781    7.1050   10.8749 N   0  0  0  0  0  0  0  0  0  0  0  0
   29.6424   11.3887   15.8534 O   0  0  0  0  0  0  0  0  0  0  0  0
   28.5236   10.5022   15.9434 C   0  0  2  0  0  0  0  0  0  0  0  0
   30.0518   12.3219   12.4932 N   0  0  0  0  0  0  0  0  0  0  0  0
   28.4518   10.6899   18.3346 O   0  0  0  0  0  0  0  0  0  0  0  0
   28.5672    9.7391   17.2693 C   0  0  1  0  0  0  0  0  0  0  0  0
   28.2848   10.3097   13.5274 O   0  0  0  0  0  0  0  0  0  0  0  0
   27.4164    8.7337   17.3541 C   0  0  1  0  0  0  0  0  0  0  0  0
   28.6439    8.9763   11.6339 O   0  0  0  0  0  0  0  0  0  0  0  0
   27.4682    7.7554   16.1757 C   0  0  0  0  0  0  0  0  0  0  0  0
   26.4523   11.0535    9.4977 O   0  0  0  0  0  0  0  0  0  0  0  0
   27.3758    8.5393   14.8635 C   0  0  1  0  0  0  0  0  0  0  0  0
   28.5284   12.8771   10.1256 O   0  0  0  0  0  0  0  0  0  0  0  0
   28.5099    9.5604   14.7332 C   0  0  2  0  0  0  0  0  0  0  0  0
   29.2133    9.9966   12.4749 C   0  0  1  0  0  0  0  0  0  0  0  0
   27.4340    9.3781   10.9604 C   0  0  2  0  0  0  0  0  0  0  0  0
   26.9203    8.2492   10.0640 C   0  0  0  0  0  0  0  0  0  0  0  0
   27.6787   10.6126   10.0885 C   0  0  2  0  0  0  0  0  0  0  0  0
   28.2406   11.7454   10.9491 C   0  0  1  0  0  0  0  0  0  0  0  0
   29.5117   11.2511   11.6447 C   0  0  1  0  0  0  0  0  0  0  0  0
  5  4  1  6  0  0  0
  5  8  1  0  0  0  0
  5 16  1  0  0  0  0
  8  7  1  1  0  0  0
  8 10  1  0  0  0  0
 10  1  1  1  0  0  0
 10 12  1  0  0  0  0
 11 18  1  0  0  0  0
 12 14  1  0  0  0  0
 14  2  1  6  0  0  0
 14 16  1  0  0  0  0
 16  9  1  6  0  0  0
 17  9  1  1  0  0  0
 17 11  1  0  0  0  0
 17 22  1  0  0  0  0
 18 19  1  6  0  0  0
 18 20  1  0  0  0  0
 19  3  1  0  0  0  0
 20 13  1  1  0  0  0
 20 21  1  0  0  0  0
 21 15  1  6  0  0  0
 21 22  1  0  0  0  0
 22  6  1  1  0  0  0
M  END
>  <CHROM.1>
131.30842954,93.44857164,66.82035024,28.10978569,9.87021720,13.49155782,1.48100996
1.07707592,1.82917538

>  <Name>
2fcx_lig

>  <RI>
0

>  <Rbt.Current_Directory>
/home/itssahil/PROJECTS/Mol_Feturizer/New_Systems/rnas/2fcx

>  <Rbt.Executable>
rbdock ($Id: //depot/dev/client3/rdock/2013.1/src/exe/rbdock.cxx#4 $)

>  <Rbt.Library>
libRbt.so (2013.1, Build901 2013/11/27)

>  <Rbt.Parameter_File>
/export/apps/rDock/src/rDock_2013.1_src/data/scripts/dock_solv.prm

>  <Rbt.Receptor>
prm/pocket_docking_6.prm

>  <SCORE>
-7.38349

>  <SCORE.INTER>
-11.3391

>  <SCORE.INTER.CONST>
1

>  <SCORE.INTER.POLAR>
-1.50938

>  <SCORE.INTER.ROT>
3

>  <SCORE.INTER.SOLV>
9.30101

>  <SCORE.INTER.VDW>
-11.2285

>  <SCORE.INTER.norm>
-0.515415

>  <SCORE.INTRA>
3.95565

>  <SCORE.INTRA.DIHEDRAL>
6.11606

>  <SCORE.INTRA.DIHEDRAL.0>
4.88619

>  <SCORE.INTRA.POLAR>
0

>  <SCORE.INTRA.POLAR.0>
0

>  <SCORE.INTRA.REPUL>
0

>  <SCORE.INTRA.REPUL.0>
0

>  <SCORE.INTRA.SOLV>
3.70709

>  <SCORE.INTRA.SOLV.lig_0>
-73.8187

>  <SCORE.INTRA.VDW>
-0.955932

>  <SCORE.INTRA.VDW.0>
-1.32335

>  <SCORE.INTRA.norm>
0.179802

>  <SCORE.RESTR>
0

>  <SCORE.RESTR.CAVITY>
0

>  <SCORE.RESTR.norm>
0

>  <SCORE.SYSTEM>
0

>  <SCORE.SYSTEM.CONST>
0

>  <SCORE.SYSTEM.DIHEDRAL>
0

>  <SCORE.SYSTEM.SOLV>
0

>  <SCORE.SYSTEM.norm>
0

>  <SCORE.heavy>
22

>  <SCORE.norm>
-0.335613

>  <RMSD>
6.254

$$$$
2fcx_lig
 OpenBabel11021811433D
libRbt.so/2013.1/901 2013/11/27
 22 23  0  0  0  0  0  0  0  0999 V2000
   27.2760    6.7718   19.9599 N   0  0  0  0  0  0  0  0  0  0  0  0
   28.3270    6.6868   15.1679 N   0  0  0  0  0  0  0  0  0  0  0  0
   27.7341    7.6119   10.3632 N   0  0  0  0  0  0  0  0  0  0  0  0
   28.6590   10.8507   17.6644 O   0  0  0  0  0  0  0  0  0  0  0  0
   27.9104    9.6396   17.5290 C   0  0  2  0  0  0  0  0  0  0  0  0
   30.3059   11.3432   14.2976 N   0  0  0  0  0  0  0  0  0  0  0  0
   27.2923    9.6560   19.8476 O   0  0  0  0  0  0  0  0  0  0  0  0
   27.9360    8.8598   18.8457 C   0  0  1  0  0  0  0  0  0  0  0  0
   28.2497    9.5169   15.1205 O   0  0  0  0  0  0  0  0  0  0  0  0
   27.1991    7.5263   18.7003 C   0  0  1  0  0  0  0  0  0  0  0  0
   28.5282    8.2689   13.1567 O   0  0  0  0  0  0  0  0  0  0  0  0
   27.8166    6.6897   17.5748 C   0  0  0  0  0  0  0  0  0  0  0  0
   26.7244   10.7422   11.0804 O   0  0  0  0  0  0  0  0  0  0  0  0
   27.7364    7.4720   16.2609 C   0  0  1  0  0  0  0  0  0  0  0  0
   28.9823   12.2381   11.9140 O   0  0  0  0  0  0  0  0  0  0  0  0
   28.4621    8.8172   16.3580 C   0  0  2  0  0  0  0  0  0  0  0  0
   29.1809    9.1522   14.0873 C   0  0  1  0  0  0  0  0  0  0  0  0
   27.4133    8.8656   12.4640 C   0  0  2  0  0  0  0  0  0  0  0  0
   26.8046    7.8711   11.4728 C   0  0  0  0  0  0  0  0  0  0  0  0
   27.8548   10.1098   11.6886 C   0  0  2  0  0  0  0  0  0  0  0  0
   28.5135   11.1042   12.6462 C   0  0  1  0  0  0  0  0  0  0  0  0
   29.6761   10.4066   13.3572 C   0  0  1  0  0  0  0  0  0  0  0  0
  5  4  1  1  0  0  0
  5  8  1  0  0  0  0
  5 16  1  0  0  0  0
  8  7  1  1  0  0  0
  8 10  1  0  0  0  0
 10  1  1  1  0  0  0
 10 12  1  0  0  0  0
 11 18  1  0  0  0  0
 12 14  1  0  0  0  0
 14  2  1  6  0  0  0
 14 16  1  0  0  0  0
 16  9  1  6  0  0  0
 17  9  1  1  0  0  0
 17 11  1  0  0  0  0
 17 22  1  0  0  0  0
 18 19  1  6  0  0  0
 18 20  1  0  0  0  0
 19  3  1  0  0  0  0
 20 13  1  1  0  0  0
 20 21  1  0  0  0  0
 21 15  1  6  0  0  0
 21 22  1  0  0  0  0
 22  6  1  1  0  0  0
M  END
>  <CHROM.1>
155.01875983,102.97038368,-68.43929989,28.11330889,9.13962009,14.96595888
1.73252930,1.23864855,1.64645682

>  <Name>
2fcx_lig

>  <RI>
3.23342e+07

>  <Rbt.Current_Directory>
/home/itssahil/PROJECTS/Mol_Feturizer/New_Systems/rnas/2fcx

>  <Rbt.Executable>
rbdock ($Id: //depot/dev/client3/rdock/2013.1/src/exe/rbdock.cxx#4 $)

>  <Rbt.Library>
libRbt.so (2013.1, Build901 2013/11/27)

>  <Rbt.Parameter_File>
/export/apps/rDock/src/rDock_2013.1_src/data/scripts/dock_solv.prm

>  <Rbt.Receptor>
prm/pocket_docking_5.prm

>  <SCORE>
-9.77019

>  <SCORE.INTER>
-13.7102

>  <SCORE.INTER.CONST>
1

>  <SCORE.INTER.POLAR>
-2.07451

>  <SCORE.INTER.ROT>
3

>  <SCORE.INTER.SOLV>
14.4316

>  <SCORE.INTER.VDW>
-12.6356

>  <SCORE.INTER.norm>
-0.623189

>  <SCORE.INTRA>
3.93998

>  <SCORE.INTRA.DIHEDRAL>
3.90324

>  <SCORE.INTRA.DIHEDRAL.0>
4.88619

>  <SCORE.INTRA.POLAR>
0

>  <SCORE.INTRA.POLAR.0>
0

>  <SCORE.INTRA.REPUL>
0

>  <SCORE.INTRA.REPUL.0>
0

>  <SCORE.INTRA.SOLV>
3.3757

>  <SCORE.INTRA.SOLV.lig_0>
-73.8187

>  <SCORE.INTRA.VDW>
0.300512

>  <SCORE.INTRA.VDW.0>
-1.32335

>  <SCORE.INTRA.norm>
0.17909

>  <SCORE.RESTR>
0

>  <SCORE.RESTR.CAVITY>
0

>  <SCORE.RESTR.norm>
0

>  <SCORE.SYSTEM>
0

>  <SCORE.SYSTEM.CONST>
0

>  <SCORE.SYSTEM.DIHEDRAL>
0

>  <SCORE.SYSTEM.SOLV>
0

>  <SCORE.SYSTEM.norm>
0

>  <SCORE.heavy>
22

>  <SCORE.norm>
-0.444099

>  <RMSD>
6.256

$$$$
2fcx_lig
 OpenBabel11021811433D
libRbt.so/2013.1/901 2013/11/27
 22 23  0  0  0  0  0  0  0  0999 V2000
   27.4330    7.9388   18.5925 N   0  0  0  0  0  0  0  0  0  0  0  0
   27.4562    7.6354   13.6953 N   0  0  0  0  0  0  0  0  0  0  0  0
   26.4497    7.1349   10.9196 N   0  0  0  0  0  0  0  0  0  0  0  0
   29.6000   11.3972   15.9163 O   0  0  0  0  0  0  0  0  0  0  0  0
   28.4866   10.5015   15.9738 C   0  0  2  0  0  0  0  0  0  0  0  0
   30.0741   12.3320   12.5040 N   0  0  0  0  0  0  0  0  0  0  0  0
   28.3658   10.6608   18.3650 O   0  0  0  0  0  0  0  0  0  0  0  0
   28.5096    9.7233   17.2915 C   0  0  1  0  0  0  0  0  0  0  0  0
   28.2972   10.3354   13.5514 O   0  0  0  0  0  0  0  0  0  0  0  0
   27.3651    8.7084   17.3416 C   0  0  1  0  0  0  0  0  0  0  0  0
   28.6464    8.9897   11.6649 O   0  0  0  0  0  0  0  0  0  0  0  0
   27.4478    7.7444   16.1533 C   0  0  0  0  0  0  0  0  0  0  0  0
   26.4637   11.0675    9.5200 O   0  0  0  0  0  0  0  0  0  0  0  0
   27.3755    8.5428   14.8487 C   0  0  1  0  0  0  0  0  0  0  0  0
   28.5509   12.8828   10.1354 O   0  0  0  0  0  0  0  0  0  0  0  0
   28.5041    9.5738   14.7528 C   0  0  2  0  0  0  0  0  0  0  0  0
   29.2226   10.0114   12.4995 C   0  0  1  0  0  0  0  0  0  0  0  0
   27.4379    9.3945   10.9907 C   0  0  2  0  0  0  0  0  0  0  0  0
   26.9167    8.2637   10.1011 C   0  0  0  0  0  0  0  0  0  0  0  0
   27.6884   10.6229   10.1117 C   0  0  2  0  0  0  0  0  0  0  0  0
   28.2578   11.7572   10.9653 C   0  0  1  0  0  0  0  0  0  0  0  0
   29.5269   11.2596   11.6621 C   0  0  1  0  0  0  0  0  0  0  0  0
  5  4  1  6  0  0  0
  5  8  1  0  0  0  0
  5 16  1  0  0  0  0
  8  7  1  1  0  0  0
  8 10  1  0  0  0  0
 10  1  1  1  0  0  0
 10 12  1  0  0  0  0
 11 18  1  0  0  0  0
 12 14  1  0  0  0  0
 14  2  1  6  0  0  0
 14 16  1  0  0  0  0
 16  9  1  6  0  0  0
 17  9  1  1  0  0  0
 17 11  1  0  0  0  0
 17 22  1  0  0  0  0
 18 19  1  6  0  0  0
 18 20  1  0  0  0  0
 19  3  1  0  0  0  0
 20 13  1  1  0  0  0
 20 21  1  0  0  0  0
 21 15  1  6  0  0  0
 21 22  1  0  0  0  0
 22  6  1  1  0  0  0
M  END
>  <CHROM.1>
133.15852466,92.36221087,67.70328506,28.09840497,9.87469816,13.50862795,1.50272513
1.07460840,1.81689234

>  <Name>
2fcx_lig

>  <RI>
3.23342e+07

>  <Rbt.Current_Directory>
/home/itssahil/PROJECTS/Mol_Feturizer/New_Systems/rnas/2fcx

>  <Rbt.Executable>
rbdock ($Id: //depot/dev/client3/rdock/2013.1/src/exe/rbdock.cxx#4 $)

>  <Rbt.Library>
libRbt.so (2013.1, Build901 2013/11/27)

>  <Rbt.Parameter_File>
/export/apps/rDock/src/rDock_2013.1_src/data/scripts/dock_solv.prm

>  <Rbt.Receptor>
prm/pocket_docking_5.prm

>  <SCORE>
-7.30552

>  <SCORE.INTER>
-11.177

>  <SCORE.INTER.CONST>
1

>  <SCORE.INTER.POLAR>
-1.47938

>  <SCORE.INTER.ROT>
3

>  <SCORE.INTER.SOLV>
9.36599

>  <SCORE.INTER.VDW>
-11.2421

>  <SCORE.INTER.norm>
-0.508045

>  <SCORE.INTRA>
3.87147

>  <SCORE.INTRA.DIHEDRAL>
5.75019

>  <SCORE.INTRA.DIHEDRAL.0>
4.88619

>  <SCORE.INTRA.POLAR>
0

>  <SCORE.INTRA.POLAR.0>
0

>  <SCORE.INTRA.REPUL>
0

>  <SCORE.INTRA.REPUL.0>
0

>  <SCORE.INTRA.SOLV>
3.82135

>  <SCORE.INTRA.SOLV.lig_0>
-73.8187

>  <SCORE.INTRA.VDW>
-0.914297

>  <SCORE.INTRA.VDW.0>
-1.32335

>  <SCORE.INTRA.norm>
0.175976

>  <SCORE.RESTR>
0

>  <SCORE.RESTR.CAVITY>
0

>  <SCORE.RESTR.norm>
0

>  <SCORE.SYSTEM>
0

>  <SCORE.SYSTEM.CONST>
0

>  <SCORE.SYSTEM.DIHEDRAL>
0

>  <SCORE.SYSTEM.SOLV>
0

>  <SCORE.SYSTEM.norm>
0

>  <SCORE.heavy>
22

>  <SCORE.norm>
-0.332069

>  <RMSD>
6.258

$$$$
2fcx_lig
 OpenBabel11021811433D
libRbt.so/2013.1/901 2013/11/27
 22 23  0  0  0  0  0  0  0  0999 V2000
   27.4036    8.1096   18.7224 N   0  0  0  0  0  0  0  0  0  0  0  0
   27.6233    7.8437   13.8280 N   0  0  0  0  0  0  0  0  0  0  0  0
   27.9659    7.8542    9.4616 N   0  0  0  0  0  0  0  0  0  0  0  0
   29.6517   11.6023   16.1600 O   0  0  0  0  0  0  0  0  0  0  0  0
   28.5429   10.6990   16.1666 C   0  0  2  0  0  0  0  0  0  0  0  0
   30.2277   12.4692   12.5538 N   0  0  0  0  0  0  0  0  0  0  0  0
   28.3263   10.8392   18.5523 O   0  0  0  0  0  0  0  0  0  0  0  0
   28.5189    9.9110   17.4784 C   0  0  1  0  0  0  0  0  0  0  0  0
   28.4511   10.5501   13.7374 O   0  0  0  0  0  0  0  0  0  0  0  0
   27.3803    8.8884   17.4755 C   0  0  1  0  0  0  0  0  0  0  0  0
   28.7384    9.1104   11.9108 O   0  0  0  0  0  0  0  0  0  0  0  0
   27.5165    7.9339   16.2844 C   0  0  0  0  0  0  0  0  0  0  0  0
   26.5320   11.1123    9.7186 O   0  0  0  0  0  0  0  0  0  0  0  0
   27.4907    8.7418   14.9838 C   0  0  1  0  0  0  0  0  0  0  0  0
   28.6559   12.9262   10.1970 O   0  0  0  0  0  0  0  0  0  0  0  0
   28.6152    9.7807   14.9404 C   0  0  2  0  0  0  0  0  0  0  0  0
   29.3471   10.1630   12.6814 C   0  0  1  0  0  0  0  0  0  0  0  0
   27.5195    9.4989   11.2458 C   0  0  2  0  0  0  0  0  0  0  0  0
   26.9631    8.3339   10.4243 C   0  0  0  0  0  0  0  0  0  0  0  0
   27.7646   10.6800   10.3027 C   0  0  2  0  0  0  0  0  0  0  0  0
   28.3684   11.8461   11.0871 C   0  0  1  0  0  0  0  0  0  0  0  0
   29.6473   11.3651   11.7777 C   0  0  1  0  0  0  0  0  0  0  0  0
  5  4  1  1  0  0  0
  5  8  1  0  0  0  0
  5 16  1  0  0  0  0
  8  7  1  1  0  0  0
  8 10  1  0  0  0  0
 10  1  1  1  0  0  0
 10 12  1  0  0  0  0
 11 18  1  0  0  0  0
 12 14  1  0  0  0  0
 14  2  1  6  0  0  0
 14 16  1  0  0  0  0
 16  9  1  6  0  0  0
 17  9  1  1  0  0  0
 17 11  1  0  0  0  0
 17 22  1  0  0  0  0
 18 19  1  6  0  0  0
 18 20  1  0  0  0  0
 19  3  1  0  0  0  0
 20 13  1  1  0  0  0
 20 21  1  0  0  0  0
 21 15  1  6  0  0  0
 21 22  1  0  0  0  0
 22  6  1  1  0  0  0
M  END
>  <CHROM.1>
138.06648006,88.31395801,-56.38037719,28.24187165,10.04588570,13.60677932
1.55343414,1.12497365,1.73194069

>  <Name>
2fcx_lig

>  <RI>
1.15031e+07

>  <Rbt.Current_Directory>
/home/itssahil/PROJECTS/Mol_Feturizer/New_Systems/rnas/2fcx

>  <Rbt.Executable>
rbdock ($Id: //depot/dev/client3/rdock/2013.1/src/exe/rbdock.cxx#4 $)

>  <Rbt.Library>
libRbt.so (2013.1, Build901 2013/11/27)

>  <Rbt.Parameter_File>
/export/apps/rDock/src/rDock_2013.1_src/data/scripts/dock_solv.prm

>  <Rbt.Receptor>
prm/pocket_docking_8.prm

>  <SCORE>
-11.0725

>  <SCORE.INTER>
-14.5974

>  <SCORE.INTER.CONST>
1

>  <SCORE.INTER.POLAR>
-2.32169

>  <SCORE.INTER.ROT>
3

>  <SCORE.INTER.SOLV>
10.9615

>  <SCORE.INTER.VDW>
-11.2465

>  <SCORE.INTER.norm>
-0.663519

>  <SCORE.INTRA>
3.5249

>  <SCORE.INTRA.DIHEDRAL>
4.15408

>  <SCORE.INTRA.DIHEDRAL.0>
4.88619

>  <SCORE.INTRA.POLAR>
0

>  <SCORE.INTRA.POLAR.0>
0

>  <SCORE.INTRA.REPUL>
0

>  <SCORE.INTRA.REPUL.0>
0

>  <SCORE.INTRA.SOLV>
3.62778

>  <SCORE.INTRA.SOLV.lig_0>
-73.8187

>  <SCORE.INTRA.VDW>
-0.366037

>  <SCORE.INTRA.VDW.0>
-1.32335

>  <SCORE.INTRA.norm>
0.160223

>  <SCORE.RESTR>
0

>  <SCORE.RESTR.CAVITY>
0

>  <SCORE.RESTR.norm>
0

>  <SCORE.SYSTEM>
0

>  <SCORE.SYSTEM.CONST>
0

>  <SCORE.SYSTEM.DIHEDRAL>
0

>  <SCORE.SYSTEM.SOLV>
0

>  <SCORE.SYSTEM.norm>
0

>  <SCORE.heavy>
22

>  <SCORE.norm>
-0.503296

>  <RMSD>
6.259

$$$$
2fcx_lig
 OpenBabel11021811433D
libRbt.so/2013.1/901 2013/11/27
 22 23  0  0  0  0  0  0  0  0999 V2000
   27.4657    8.1015   18.6917 N   0  0  0  0  0  0  0  0  0  0  0  0
   27.6204    7.8457   13.7942 N   0  0  0  0  0  0  0  0  0  0  0  0
   27.9228    7.9101    9.4051 N   0  0  0  0  0  0  0  0  0  0  0  0
   29.5965   11.6470   16.1019 O   0  0  0  0  0  0  0  0  0  0  0  0
   28.5088   10.7187   16.1232 C   0  0  2  0  0  0  0  0  0  0  0  0
   30.1296   12.5301   12.5307 N   0  0  0  0  0  0  0  0  0  0  0  0
   28.3236   10.8515   18.5120 O   0  0  0  0  0  0  0  0  0  0  0  0
   28.5216    9.9290   17.4341 C   0  0  1  0  0  0  0  0  0  0  0  0
   28.3852   10.5703   13.6955 O   0  0  0  0  0  0  0  0  0  0  0  0
   27.4066    8.8808   17.4464 C   0  0  1  0  0  0  0  0  0  0  0  0
   28.6811    9.1617   11.8461 O   0  0  0  0  0  0  0  0  0  0  0  0
   27.5472    7.9309   16.2521 C   0  0  0  0  0  0  0  0  0  0  0  0
   26.4360   11.1662    9.6960 O   0  0  0  0  0  0  0  0  0  0  0  0
   27.4842    8.7393   14.9531 C   0  0  1  0  0  0  0  0  0  0  0  0
   28.5385   13.0009   10.1895 O   0  0  0  0  0  0  0  0  0  0  0  0
   28.5841    9.8036   14.8949 C   0  0  2  0  0  0  0  0  0  0  0  0
   29.2802   10.2108   12.6289 C   0  0  1  0  0  0  0  0  0  0  0  0
   27.4534    9.5437   11.1936 C   0  0  2  0  0  0  0  0  0  0  0  0
   26.9078    8.3836   10.3580 C   0  0  0  0  0  0  0  0  0  0  0  0
   27.6776   10.7417   10.2669 C   0  0  2  0  0  0  0  0  0  0  0  0
   28.2703   11.9041   11.0651 C   0  0  1  0  0  0  0  0  0  0  0  0
   29.5593   11.4300   11.7415 C   0  0  1  0  0  0  0  0  0  0  0  0
  5  4  1  1  0  0  0
  5  8  1  0  0  0  0
  5 16  1  0  0  0  0
  8  7  1  1  0  0  0
  8 10  1  0  0  0  0
 10  1  1  1  0  0  0
 10 12  1  0  0  0  0
 11 18  1  0  0  0  0
 12 14  1  0  0  0  0
 14  2  1  6  0  0  0
 14 16  1  0  0  0  0
 16  9  1  6  0  0  0
 17  9  1  1  0  0  0
 17 11  1  0  0  0  0
 17 22  1  0  0  0  0
 18 19  1  6  0  0  0
 18 20  1  0  0  0  0
 19  3  1  0  0  0  0
 20 13  1  1  0  0  0
 20 21  1  0  0  0  0
 21 15  1  6  0  0  0
 21 22  1  0  0  0  0
 22  6  1  1  0  0  0
M  END
>  <CHROM.1>
137.68167676,89.48399523,-55.01254477,28.19789660,10.08000129,13.56725356
1.51973111,1.14397918,1.76985460

>  <Name>
2fcx_lig

>  <RI>
3.23342e+07

>  <Rbt.Current_Directory>
/home/itssahil/PROJECTS/Mol_Feturizer/New_Systems/rnas/2fcx

>  <Rbt.Executable>
rbdock ($Id: //depot/dev/client3/rdock/2013.1/src/exe/rbdock.cxx#4 $)

>  <Rbt.Library>
libRbt.so (2013.1, Build901 2013/11/27)

>  <Rbt.Parameter_File>
/export/apps/rDock/src/rDock_2013.1_src/data/scripts/dock_solv.prm

>  <Rbt.Receptor>
prm/pocket_docking_5.prm

>  <SCORE>
-11.136

>  <SCORE.INTER>
-14.684

>  <SCORE.INTER.CONST>
1

>  <SCORE.INTER.POLAR>
-2.37485

>  <SCORE.INTER.ROT>
3

>  <SCORE.INTER.SOLV>
10.3085

>  <SCORE.INTER.VDW>
-10.9094

>  <SCORE.INTER.norm>
-0.667456

>  <SCORE.INTRA>
3.54803

>  <SCORE.INTRA.DIHEDRAL>
4.47393

>  <SCORE.INTRA.DIHEDRAL.0>
4.88619

>  <SCORE.INTRA.POLAR>
0

>  <SCORE.INTRA.POLAR.0>
0

>  <SCORE.INTRA.REPUL>
0

>  <SCORE.INTRA.REPUL.0>
0

>  <SCORE.INTRA.SOLV>
3.53988

>  <SCORE.INTRA.SOLV.lig_0>
-73.8187

>  <SCORE.INTRA.VDW>
-0.458877

>  <SCORE.INTRA.VDW.0>
-1.32335

>  <SCORE.INTRA.norm>
0.161274

>  <SCORE.RESTR>
0

>  <SCORE.RESTR.CAVITY>
0

>  <SCORE.RESTR.norm>
0

>  <SCORE.SYSTEM>
0

>  <SCORE.SYSTEM.CONST>
0

>  <SCORE.SYSTEM.DIHEDRAL>
0

>  <SCORE.SYSTEM.SOLV>
0

>  <SCORE.SYSTEM.norm>
0

>  <SCORE.heavy>
22

>  <SCORE.norm>
-0.506182

>  <RMSD>
6.267

$$$$
2fcx_lig
 OpenBabel11021811433D
libRbt.so/2013.1/901 2013/11/27
 22 23  0  0  0  0  0  0  0  0999 V2000
   26.0851    7.2933   18.3144 N   0  0  0  0  0  0  0  0  0  0  0  0
   28.9233    7.9670   14.3691 N   0  0  0  0  0  0  0  0  0  0  0  0
   29.7476   13.4282   13.4991 N   0  0  0  0  0  0  0  0  0  0  0  0
   24.7584   10.4414   14.8290 O   0  0  0  0  0  0  0  0  0  0  0  0
   25.3890    9.1818   15.0765 C   0  0  2  0  0  0  0  0  0  0  0  0
   26.0503    9.8876   10.3737 N   0  0  0  0  0  0  0  0  0  0  0  0
   23.9842    8.7487   16.9731 O   0  0  0  0  0  0  0  0  0  0  0  0
   25.3549    8.8658   16.5736 C   0  0  1  0  0  0  0  0  0  0  0  0
   26.7891    9.3170   13.0883 O   0  0  0  0  0  0  0  0  0  0  0  0
   26.0873    7.5545   16.8676 C   0  0  1  0  0  0  0  0  0  0  0  0
   27.6530   11.4806   13.3413 O   0  0  0  0  0  0  0  0  0  0  0  0
   27.5356    7.6238   16.3716 C   0  0  0  0  0  0  0  0  0  0  0  0
   30.7166   10.7078   11.4181 O   0  0  0  0  0  0  0  0  0  0  0  0
   27.5415    7.8939   14.8644 C   0  0  1  0  0  0  0  0  0  0  0  0
   28.7118   10.4112    9.4375 O   0  0  0  0  0  0  0  0  0  0  0  0
   26.8182    9.1994   14.5206 C   0  0  2  0  0  0  0  0  0  0  0  0
   26.6985   10.6754   12.6253 C   0  0  1  0  0  0  0  0  0  0  0  0
   29.0259   11.0993   13.1207 C   0  0  2  0  0  0  0  0  0  0  0  0
   29.9694   12.0276   13.8887 C   0  0  0  0  0  0  0  0  0  0  0  0
   29.3811   11.1742   11.6332 C   0  0  2  0  0  0  0  0  0  0  0  0
   28.4216   10.2932   10.8316 C   0  0  1  0  0  0  0  0  0  0  0  0
   26.9858   10.7395   11.1202 C   0  0  1  0  0  0  0  0  0  0  0  0
  5  4  1  1  0  0  0
  5  8  1  0  0  0  0
  5 16  1  0  0  0  0
  8  7  1  6  0  0  0
  8 10  1  0  0  0  0
 10  1  1  1  0  0  0
 10 12  1  0  0  0  0
 11 18  1  0  0  0  0
 12 14  1  0  0  0  0
 14  2  1  1  0  0  0
 14 16  1  0  0  0  0
 16  9  1  6  0  0  0
 17  9  1  1  0  0  0
 17 11  1  0  0  0  0
 17 22  1  0  0  0  0
 18 19  1  1  0  0  0
 18 20  1  0  0  0  0
 19  3  1  0  0  0  0
 20 13  1  1  0  0  0
 20 21  1  0  0  0  0
 21 15  1  6  0  0  0
 21 22  1  0  0  0  0
 22  6  1  6  0  0  0
M  END
>  <CHROM.1>
85.45576552,46.75305186,-56.96550215,27.38826219,9.83760711,13.75789634,-2.09734430
-0.30097109,-1.24048304

>  <Name>
2fcx_lig

>  <RI>
1.21945e+07

>  <Rbt.Current_Directory>
/home/itssahil/PROJECTS/Mol_Feturizer/New_Systems/rnas/2fcx

>  <Rbt.Executable>
rbdock ($Id: //depot/dev/client3/rdock/2013.1/src/exe/rbdock.cxx#4 $)

>  <Rbt.Library>
libRbt.so (2013.1, Build901 2013/11/27)

>  <Rbt.Parameter_File>
/export/apps/rDock/src/rDock_2013.1_src/data/scripts/dock_solv.prm

>  <Rbt.Receptor>
prm/pocket_docking_3.prm

>  <SCORE>
-9.5578

>  <SCORE.INTER>
-9.78547

>  <SCORE.INTER.CONST>
1

>  <SCORE.INTER.POLAR>
-1.49472

>  <SCORE.INTER.ROT>
3

>  <SCORE.INTER.SOLV>
18.1869

>  <SCORE.INTER.VDW>
-13.2035

>  <SCORE.INTER.norm>
-0.444794

>  <SCORE.INTRA>
0.201345

>  <SCORE.INTRA.DIHEDRAL>
-1.26335

>  <SCORE.INTRA.DIHEDRAL.0>
4.88619

>  <SCORE.INTRA.POLAR>
0

>  <SCORE.INTRA.POLAR.0>
0

>  <SCORE.INTRA.REPUL>
0

>  <SCORE.INTRA.REPUL.0>
0

>  <SCORE.INTRA.SOLV>
1.7454

>  <SCORE.INTRA.SOLV.lig_0>
-73.8187

>  <SCORE.INTRA.VDW>
-0.0396807

>  <SCORE.INTRA.VDW.0>
-1.32335

>  <SCORE.INTRA.norm>
0.00915206

>  <SCORE.RESTR>
0.0263191

>  <SCORE.RESTR.CAVITY>
0.0263191

>  <SCORE.RESTR.norm>
0.00119632

>  <SCORE.SYSTEM>
0

>  <SCORE.SYSTEM.CONST>
0

>  <SCORE.SYSTEM.DIHEDRAL>
0

>  <SCORE.SYSTEM.SOLV>
0

>  <SCORE.SYSTEM.norm>
0

>  <SCORE.heavy>
22

>  <SCORE.norm>
-0.434445

>  <RMSD>
6.268

$$$$
2fcx_lig
 OpenBabel11021811433D
libRbt.so/2013.1/901 2013/11/27
 22 23  0  0  0  0  0  0  0  0999 V2000
   30.6891   12.0337   15.2524 N   0  0  0  0  0  0  0  0  0  0  0  0
   29.3186   11.5384   10.5672 N   0  0  0  0  0  0  0  0  0  0  0  0
   24.8935   11.6044   10.8796 N   0  0  0  0  0  0  0  0  0  0  0  0
   27.9145    8.2610   13.8788 O   0  0  0  0  0  0  0  0  0  0  0  0
   28.9896    9.1165   13.4814 C   0  0  2  0  0  0  0  0  0  0  0  0
   28.4339    6.2093   10.0580 N   0  0  0  0  0  0  0  0  0  0  0  0
   29.7641    9.3437   15.7412 O   0  0  0  0  0  0  0  0  0  0  0  0
   29.3193   10.0986   14.6080 C   0  0  1  0  0  0  0  0  0  0  0  0
   28.5045    8.8806   11.1065 O   0  0  0  0  0  0  0  0  0  0  0  0
   30.4207   11.0693   14.1756 C   0  0  1  0  0  0  0  0  0  0  0  0
   26.1638    8.9899   11.0721 O   0  0  0  0  0  0  0  0  0  0  0  0
   30.0029   11.8298   12.9125 C   0  0  0  0  0  0  0  0  0  0  0  0
   26.0323    9.4889    7.4094 O   0  0  0  0  0  0  0  0  0  0  0  0
   29.7243   10.8282   11.7882 C   0  0  1  0  0  0  0  0  0  0  0  0
   27.1364    6.8853    7.5894 O   0  0  0  0  0  0  0  0  0  0  0  0
   28.6258    9.8337   12.1756 C   0  0  2  0  0  0  0  0  0  0  0  0
   27.2953    8.1045   11.1634 C   0  0  1  0  0  0  0  0  0  0  0  0
   26.0856    9.7167    9.8293 C   0  0  2  0  0  0  0  0  0  0  0  0
   24.8379   10.6024    9.8047 C   0  0  0  0  0  0  0  0  0  0  0  0
   26.0187    8.7564    8.6386 C   0  0  2  0  0  0  0  0  0  0  0  0
   27.2300    7.8228    8.6636 C   0  0  1  0  0  0  0  0  0  0  0  0
   27.2624    7.0945   10.0099 C   0  0  1  0  0  0  0  0  0  0  0  0
  5  4  1  1  0  0  0
  5  8  1  0  0  0  0
  5 16  1  0  0  0  0
  8  7  1  1  0  0  0
  8 10  1  0  0  0  0
 10  1  1  1  0  0  0
 10 12  1  0  0  0  0
 11 18  1  0  0  0  0
 12 14  1  0  0  0  0
 14  2  1  6  0  0  0
 14 16  1  0  0  0  0
 16  9  1  6  0  0  0
 17  9  1  6  0  0  0
 17 11  1  0  0  0  0
 17 22  1  0  0  0  0
 18 19  1  1  0  0  0
 18 20  1  0  0  0  0
 19  3  1  0  0  0  0
 20 13  1  6  0  0  0
 20 21  1  0  0  0  0
 21 15  1  6  0  0  0
 21 22  1  0  0  0  0
 22  6  1  6  0  0  0
M  END
>  <CHROM.1>
74.93640287,60.65490821,62.00064693,27.92052556,9.43503562,11.38824071,0.60462530
-0.91476773,0.35415638

>  <Name>
2fcx_lig

>  <RI>
0

>  <Rbt.Current_Directory>
/home/itssahil/PROJECTS/Mol_Feturizer/New_Systems/rnas/2fcx

>  <Rbt.Executable>
rbdock ($Id: //depot/dev/client3/rdock/2013.1/src/exe/rbdock.cxx#4 $)

>  <Rbt.Library>
libRbt.so (2013.1, Build901 2013/11/27)

>  <Rbt.Parameter_File>
/export/apps/rDock/src/rDock_2013.1_src/data/scripts/dock_solv.prm

>  <Rbt.Receptor>
prm/pocket_docking_6.prm

>  <SCORE>
-9.85724

>  <SCORE.INTER>
-7.71939

>  <SCORE.INTER.CONST>
1

>  <SCORE.INTER.POLAR>
-1.66337

>  <SCORE.INTER.ROT>
3

>  <SCORE.INTER.SOLV>
14.0246

>  <SCORE.INTER.VDW>
-9.87657

>  <SCORE.INTER.norm>
-0.350881

>  <SCORE.INTRA>
-2.14696

>  <SCORE.INTRA.DIHEDRAL>
-3.81616

>  <SCORE.INTRA.DIHEDRAL.0>
4.88619

>  <SCORE.INTRA.POLAR>
0

>  <SCORE.INTRA.POLAR.0>
0

>  <SCORE.INTRA.REPUL>
0

>  <SCORE.INTRA.REPUL.0>
0

>  <SCORE.INTRA.SOLV>
-0.565494

>  <SCORE.INTRA.SOLV.lig_0>
-73.8187

>  <SCORE.INTRA.VDW>
0.0438696

>  <SCORE.INTRA.VDW.0>
-1.32335

>  <SCORE.INTRA.norm>
-0.097589

>  <SCORE.RESTR>
0.00911072

>  <SCORE.RESTR.CAVITY>
0.00911072

>  <SCORE.RESTR.norm>
0.000414124

>  <SCORE.SYSTEM>
0

>  <SCORE.SYSTEM.CONST>
0

>  <SCORE.SYSTEM.DIHEDRAL>
0

>  <SCORE.SYSTEM.SOLV>
0

>  <SCORE.SYSTEM.norm>
0

>  <SCORE.heavy>
22

>  <SCORE.norm>
-0.448056

>  <RMSD>
6.271

$$$$
2fcx_lig
 OpenBabel11021811433D
libRbt.so/2013.1/901 2013/11/27
 22 23  0  0  0  0  0  0  0  0999 V2000
   27.5333    8.0660   18.6742 N   0  0  0  0  0  0  0  0  0  0  0  0
   27.6808    7.9018   13.7726 N   0  0  0  0  0  0  0  0  0  0  0  0
   28.0537    8.0092    9.3957 N   0  0  0  0  0  0  0  0  0  0  0  0
   29.6931   11.6409   16.1496 O   0  0  0  0  0  0  0  0  0  0  0  0
   28.5971   10.7221   16.1546 C   0  0  2  0  0  0  0  0  0  0  0  0
   30.1879   12.6188   12.5859 N   0  0  0  0  0  0  0  0  0  0  0  0
   28.4155   10.8112   18.5457 O   0  0  0  0  0  0  0  0  0  0  0  0
   28.6042    9.9075   17.4503 C   0  0  1  0  0  0  0  0  0  0  0  0
   28.4697   10.6208   13.7246 O   0  0  0  0  0  0  0  0  0  0  0  0
   27.4799    8.8692   17.4440 C   0  0  1  0  0  0  0  0  0  0  0  0
   28.7914    9.2369   11.8611 O   0  0  0  0  0  0  0  0  0  0  0  0
   27.6108    7.9410   16.2317 C   0  0  0  0  0  0  0  0  0  0  0  0
   26.5225   11.2310    9.7264 O   0  0  0  0  0  0  0  0  0  0  0  0
   27.5537    8.7745   14.9484 C   0  0  1  0  0  0  0  0  0  0  0  0
   28.5961   13.0913   10.2455 O   0  0  0  0  0  0  0  0  0  0  0  0
   28.6630    9.8298   14.9091 C   0  0  2  0  0  0  0  0  0  0  0  0
   29.3728   10.2863   12.6568 C   0  0  1  0  0  0  0  0  0  0  0  0
   27.5599    9.6077   11.2093 C   0  0  2  0  0  0  0  0  0  0  0  0
   27.0338    8.4487   10.3597 C   0  0  0  0  0  0  0  0  0  0  0  0
   27.7687   10.8188   10.2961 C   0  0  2  0  0  0  0  0  0  0  0  0
   28.3420   11.9812   11.1085 C   0  0  1  0  0  0  0  0  0  0  0  0
   29.6361   11.5190   11.7834 C   0  0  1  0  0  0  0  0  0  0  0  0
  5  4  1  1  0  0  0
  5  8  1  0  0  0  0
  5 16  1  0  0  0  0
  8  7  1  1  0  0  0
  8 10  1  0  0  0  0
 10  1  1  1  0  0  0
 10 12  1  0  0  0  0
 11 18  1  0  0  0  0
 12 14  1  0  0  0  0
 14  2  1  6  0  0  0
 14 16  1  0  0  0  0
 16  9  1  6  0  0  0
 17  9  1  1  0  0  0
 17 11  1  0  0  0  0
 17 22  1  0  0  0  0
 18 19  1  6  0  0  0
 18 20  1  0  0  0  0
 19  3  1  0  0  0  0
 20 13  1  1  0  0  0
 20 21  1  0  0  0  0
 21 15  1  6  0  0  0
 21 22  1  0  0  0  0
 22  6  1  1  0  0  0
M  END
>  <CHROM.1>
136.86751021,88.55811218,-55.55802945,28.28286971,10.12228041,13.58656171
1.52438497,1.14641106,1.77962186

>  <Name>
2fcx_lig

>  <RI>
4.08374e+07

>  <Rbt.Current_Directory>
/home/itssahil/PROJECTS/Mol_Feturizer/New_Systems/rnas/2fcx

>  <Rbt.Executable>
rbdock ($Id: //depot/dev/client3/rdock/2013.1/src/exe/rbdock.cxx#4 $)

>  <Rbt.Library>
libRbt.so (2013.1, Build901 2013/11/27)

>  <Rbt.Parameter_File>
/export/apps/rDock/src/rDock_2013.1_src/data/scripts/dock_solv.prm

>  <Rbt.Receptor>
prm/pocket_docking_7.prm

>  <SCORE>
-11.0867

>  <SCORE.INTER>
-14.6097

>  <SCORE.INTER.CONST>
1

>  <SCORE.INTER.POLAR>
-2.35263

>  <SCORE.INTER.ROT>
3

>  <SCORE.INTER.SOLV>
10.338

>  <SCORE.INTER.VDW>
-10.9437

>  <SCORE.INTER.norm>
-0.664077

>  <SCORE.INTRA>
3.523

>  <SCORE.INTRA.DIHEDRAL>
4.40225

>  <SCORE.INTRA.DIHEDRAL.0>
4.88619

>  <SCORE.INTRA.POLAR>
0

>  <SCORE.INTRA.POLAR.0>
0

>  <SCORE.INTRA.REPUL>
0

>  <SCORE.INTRA.REPUL.0>
0

>  <SCORE.INTRA.SOLV>
3.57487

>  <SCORE.INTRA.SOLV.lig_0>
-73.8187

>  <SCORE.INTRA.VDW>
-0.465561

>  <SCORE.INTRA.VDW.0>
-1.32335

>  <SCORE.INTRA.norm>
0.160136

>  <SCORE.RESTR>
0

>  <SCORE.RESTR.CAVITY>
0

>  <SCORE.RESTR.norm>
0

>  <SCORE.SYSTEM>
0

>  <SCORE.SYSTEM.CONST>
0

>  <SCORE.SYSTEM.DIHEDRAL>
0

>  <SCORE.SYSTEM.SOLV>
0

>  <SCORE.SYSTEM.norm>
0

>  <SCORE.heavy>
22

>  <SCORE.norm>
-0.503941

>  <RMSD>
6.272

$$$$
2fcx_lig
 OpenBabel11021811433D
libRbt.so/2013.1/901 2013/11/27
 22 23  0  0  0  0  0  0  0  0999 V2000
   27.6520    8.1557   18.7088 N   0  0  0  0  0  0  0  0  0  0  0  0
   27.6267    7.8520   13.8117 N   0  0  0  0  0  0  0  0  0  0  0  0
   25.7300    8.4265    9.9271 N   0  0  0  0  0  0  0  0  0  0  0  0
   29.8132   11.6015   16.0117 O   0  0  0  0  0  0  0  0  0  0  0  0
   28.6952   10.7122   16.0799 C   0  0  2  0  0  0  0  0  0  0  0  0
   30.1218   12.5757   12.4614 N   0  0  0  0  0  0  0  0  0  0  0  0
   28.5983   10.8723   18.4722 O   0  0  0  0  0  0  0  0  0  0  0  0
   28.7264    9.9340   17.3974 C   0  0  1  0  0  0  0  0  0  0  0  0
   28.4818   10.5470   13.6595 O   0  0  0  0  0  0  0  0  0  0  0  0
   27.5767    8.9257   17.4586 C   0  0  1  0  0  0  0  0  0  0  0  0
   28.8515    9.1253   11.8336 O   0  0  0  0  0  0  0  0  0  0  0  0
   27.6424    7.9611   16.2696 C   0  0  0  0  0  0  0  0  0  0  0  0
   26.5055   10.9738    9.6517 O   0  0  0  0  0  0  0  0  0  0  0  0
   27.5622    8.7599   14.9657 C   0  0  1  0  0  0  0  0  0  0  0  0
   28.5091   12.9238   10.1136 O   0  0  0  0  0  0  0  0  0  0  0  0
   28.6957    9.7843   14.8589 C   0  0  2  0  0  0  0  0  0  0  0  0
   29.3948   10.2171   12.5986 C   0  0  1  0  0  0  0  0  0  0  0  0
   27.6058    9.4318   11.1755 C   0  0  2  0  0  0  0  0  0  0  0  0
   27.1218    8.2310   10.3596 C   0  0  0  0  0  0  0  0  0  0  0  0
   27.7674   10.6243   10.2289 C   0  0  2  0  0  0  0  0  0  0  0  0
   28.2983   11.8291   11.0074 C   0  0  1  0  0  0  0  0  0  0  0  0
   29.6101   11.4344   11.6909 C   0  0  1  0  0  0  0  0  0  0  0  0
  5  4  1  6  0  0  0
  5  8  1  0  0  0  0
  5 16  1  0  0  0  0
  8  7  1  1  0  0  0
  8 10  1  0  0  0  0
 10  1  1  1  0  0  0
 10 12  1  0  0  0  0
 11 18  1  0  0  0  0
 12 14  1  0  0  0  0
 14  2  1  6  0  0  0
 14 16  1  0  0  0  0
 16  9  1  6  0  0  0
 17  9  1  1  0  0  0
 17 11  1  0  0  0  0
 17 22  1  0  0  0  0
 18 19  1  6  0  0  0
 18 20  1  0  0  0  0
 19  3  1  0  0  0  0
 20 13  1  1  0  0  0
 20 21  1  0  0  0  0
 21 15  1  6  0  0  0
 21 22  1  0  0  0  0
 22  6  1  1  0  0  0
M  END
>  <CHROM.1>
133.18836657,87.79642687,167.81806509,28.21219187,10.07386064,13.56270918
1.41783942,1.00835104,1.85026960

>  <Name>
2fcx_lig

>  <RI>
0

>  <Rbt.Current_Directory>
/home/itssahil/PROJECTS/Mol_Feturizer/New_Systems/rnas/2fcx

>  <Rbt.Executable>
rbdock ($Id: //depot/dev/client3/rdock/2013.1/src/exe/rbdock.cxx#4 $)

>  <Rbt.Library>
libRbt.so (2013.1, Build901 2013/11/27)

>  <Rbt.Parameter_File>
/export/apps/rDock/src/rDock_2013.1_src/data/scripts/dock_solv.prm

>  <Rbt.Receptor>
prm/pocket_docking_6.prm

>  <SCORE>
-7.67808

>  <SCORE.INTER>
-11.4451

>  <SCORE.INTER.CONST>
1

>  <SCORE.INTER.POLAR>
-1.49725

>  <SCORE.INTER.ROT>
3

>  <SCORE.INTER.SOLV>
7.47778

>  <SCORE.INTER.VDW>
-10.7318

>  <SCORE.INTER.norm>
-0.520233

>  <SCORE.INTRA>
3.76704

>  <SCORE.INTRA.DIHEDRAL>
5.2051

>  <SCORE.INTRA.DIHEDRAL.0>
4.88619

>  <SCORE.INTRA.POLAR>
0

>  <SCORE.INTRA.POLAR.0>
0

>  <SCORE.INTRA.REPUL>
0

>  <SCORE.INTRA.REPUL.0>
0

>  <SCORE.INTRA.SOLV>
3.25869

>  <SCORE.INTRA.SOLV.lig_0>
-73.8187

>  <SCORE.INTRA.VDW>
-0.464857

>  <SCORE.INTRA.VDW.0>
-1.32335

>  <SCORE.INTRA.norm>
0.171229

>  <SCORE.RESTR>
0

>  <SCORE.RESTR.CAVITY>
0

>  <SCORE.RESTR.norm>
0

>  <SCORE.SYSTEM>
0

>  <SCORE.SYSTEM.CONST>
0

>  <SCORE.SYSTEM.DIHEDRAL>
0

>  <SCORE.SYSTEM.SOLV>
0

>  <SCORE.SYSTEM.norm>
0

>  <SCORE.heavy>
22

>  <SCORE.norm>
-0.349004

>  <RMSD>
6.275

$$$$
2fcx_lig
 OpenBabel11021811433D
libRbt.so/2013.1/901 2013/11/27
 22 23  0  0  0  0  0  0  0  0999 V2000
   29.9816   10.2674   16.3768 N   0  0  0  0  0  0  0  0  0  0  0  0
   26.3311    9.2227   13.2692 N   0  0  0  0  0  0  0  0  0  0  0  0
   25.7358    6.2998    9.2838 N   0  0  0  0  0  0  0  0  0  0  0  0
   30.5777   10.8864   11.5726 O   0  0  0  0  0  0  0  0  0  0  0  0
   29.6415   10.9900   12.6489 C   0  0  2  0  0  0  0  0  0  0  0  0
   27.6858   12.5458    9.1080 N   0  0  0  0  0  0  0  0  0  0  0  0
   31.3647   11.5813   14.2107 O   0  0  0  0  0  0  0  0  0  0  0  0
   30.3230   10.6278   13.9706 C   0  0  1  0  0  0  0  0  0  0  0  0
   27.7133   10.5957   11.2144 O   0  0  0  0  0  0  0  0  0  0  0  0
   29.3195   10.6644   15.1255 C   0  0  1  0  0  0  0  0  0  0  0  0
   28.3490    8.9234    9.7008 O   0  0  0  0  0  0  0  0  0  0  0  0
   28.1492    9.7135   14.8526 C   0  0  0  0  0  0  0  0  0  0  0  0
   24.9482    8.6276    8.2767 O   0  0  0  0  0  0  0  0  0  0  0  0
   27.4562   10.1255   13.5507 C   0  0  1  0  0  0  0  0  0  0  0  0
   25.6436   11.2749    7.5432 O   0  0  0  0  0  0  0  0  0  0  0  0
   28.4232   10.1035   12.3633 C   0  0  2  0  0  0  0  0  0  0  0  0
   28.3854   10.3371    9.9697 C   0  0  1  0  0  0  0  0  0  0  0  0
   27.0197    8.3926    9.5273 C   0  0  2  0  0  0  0  0  0  0  0  0
   27.0777    6.8966    9.2107 C   0  0  0  0  0  0  0  0  0  0  0  0
   26.2948    9.1005    8.3794 C   0  0  2  0  0  0  0  0  0  0  0  0
   26.2640   10.6068    8.6433 C   0  0  1  0  0  0  0  0  0  0  0  0
   27.7001   11.1030    8.8315 C   0  0  1  0  0  0  0  0  0  0  0  0
  5  4  1  6  0  0  0
  5  8  1  0  0  0  0
  5 16  1  0  0  0  0
  8  7  1  1  0  0  0
  8 10  1  0  0  0  0
 10  1  1  1  0  0  0
 10 12  1  0  0  0  0
 11 18  1  0  0  0  0
 12 14  1  0  0  0  0
 14  2  1  6  0  0  0
 14 16  1  0  0  0  0
 16  9  1  6  0  0  0
 17  9  1  1  0  0  0
 17 11  1  0  0  0  0
 17 22  1  0  0  0  0
 18 19  1  6  0  0  0
 18 20  1  0  0  0  0
 19  3  1  0  0  0  0
 20 13  1  1  0  0  0
 20 21  1  0  0  0  0
 21 15  1  6  0  0  0
 21 22  1  0  0  0  0
 22  6  1  1  0  0  0
M  END
>  <CHROM.1>
73.58716335,69.39983760,169.31035120,27.92823507,9.95511210,11.22232182,0.62925428
0.90129963,2.15208478

>  <Name>
2fcx_lig

>  <RI>
4.08374e+07

>  <Rbt.Current_Directory>
/home/itssahil/PROJECTS/Mol_Feturizer/New_Systems/rnas/2fcx

>  <Rbt.Executable>
rbdock ($Id: //depot/dev/client3/rdock/2013.1/src/exe/rbdock.cxx#4 $)

>  <Rbt.Library>
libRbt.so (2013.1, Build901 2013/11/27)

>  <Rbt.Parameter_File>
/export/apps/rDock/src/rDock_2013.1_src/data/scripts/dock_solv.prm

>  <Rbt.Receptor>
prm/pocket_docking_7.prm

>  <SCORE>
-10.1653

>  <SCORE.INTER>
-9.26309

>  <SCORE.INTER.CONST>
1

>  <SCORE.INTER.POLAR>
-1.68176

>  <SCORE.INTER.ROT>
3

>  <SCORE.INTER.SOLV>
9.82355

>  <SCORE.INTER.VDW>
-9.44406

>  <SCORE.INTER.norm>
-0.42105

>  <SCORE.INTRA>
-0.902201

>  <SCORE.INTRA.DIHEDRAL>
-3.16986

>  <SCORE.INTRA.DIHEDRAL.0>
4.88619

>  <SCORE.INTRA.POLAR>
0

>  <SCORE.INTRA.POLAR.0>
0

>  <SCORE.INTRA.REPUL>
0

>  <SCORE.INTRA.REPUL.0>
0

>  <SCORE.INTRA.SOLV>
0.518625

>  <SCORE.INTRA.SOLV.lig_0>
-73.8187

>  <SCORE.INTRA.VDW>
0.423417

>  <SCORE.INTRA.VDW.0>
-1.32335

>  <SCORE.INTRA.norm>
-0.0410092

>  <SCORE.RESTR>
0

>  <SCORE.RESTR.CAVITY>
0

>  <SCORE.RESTR.norm>
0

>  <SCORE.SYSTEM>
0

>  <SCORE.SYSTEM.CONST>
0

>  <SCORE.SYSTEM.DIHEDRAL>
0

>  <SCORE.SYSTEM.SOLV>
0

>  <SCORE.SYSTEM.norm>
0

>  <SCORE.heavy>
22

>  <SCORE.norm>
-0.462059

>  <RMSD>
6.286

$$$$
2fcx_lig
 OpenBabel11021811433D
libRbt.so/2013.1/901 2013/11/27
 22 23  0  0  0  0  0  0  0  0999 V2000
   27.3736    8.0034   18.6026 N   0  0  0  0  0  0  0  0  0  0  0  0
   27.5534    7.7868   13.7041 N   0  0  0  0  0  0  0  0  0  0  0  0
   28.0524    7.8475    9.3477 N   0  0  0  0  0  0  0  0  0  0  0  0
   29.5152   11.5709   16.0519 O   0  0  0  0  0  0  0  0  0  0  0  0
   28.4279   10.6417   16.0603 C   0  0  2  0  0  0  0  0  0  0  0  0
   30.0269   12.5372   12.5278 N   0  0  0  0  0  0  0  0  0  0  0  0
   28.2305   10.7553   18.4491 O   0  0  0  0  0  0  0  0  0  0  0  0
   28.4347    9.8416   17.3650 C   0  0  1  0  0  0  0  0  0  0  0  0
   28.3167   10.5125   13.6309 O   0  0  0  0  0  0  0  0  0  0  0  0
   27.3203    8.7925   17.3632 C   0  0  1  0  0  0  0  0  0  0  0  0
   28.6965    9.1351   11.7734 O   0  0  0  0  0  0  0  0  0  0  0  0
   27.4677    7.8524   16.1621 C   0  0  0  0  0  0  0  0  0  0  0  0
   26.4409   11.0964    9.5948 O   0  0  0  0  0  0  0  0  0  0  0  0
   27.4107    8.6710   14.8693 C   0  0  1  0  0  0  0  0  0  0  0  0
   28.4754   12.9874   10.1563 O   0  0  0  0  0  0  0  0  0  0  0  0
   28.5101    9.7364   14.8252 C   0  0  2  0  0  0  0  0  0  0  0  0
   29.2459   10.1925   12.5812 C   0  0  1  0  0  0  0  0  0  0  0  0
   27.4728    9.4878   11.0973 C   0  0  2  0  0  0  0  0  0  0  0  0
   26.9814    8.3217   10.2368 C   0  0  0  0  0  0  0  0  0  0  0  0
   27.6815   10.7027   10.1891 C   0  0  2  0  0  0  0  0  0  0  0  0
   28.2208   11.8729   11.0134 C   0  0  1  0  0  0  0  0  0  0  0  0
   29.5080   11.4298   11.7138 C   0  0  1  0  0  0  0  0  0  0  0  0
  5  4  1  1  0  0  0
  5  8  1  0  0  0  0
  5 16  1  0  0  0  0
  8  7  1  1  0  0  0
  8 10  1  0  0  0  0
 10  1  1  1  0  0  0
 10 12  1  0  0  0  0
 11 18  1  0  0  0  0
 12 14  1  0  0  0  0
 14  2  1  6  0  0  0
 14 16  1  0  0  0  0
 16  9  1  6  0  0  0
 17  9  1  1  0  0  0
 17 11  1  0  0  0  0
 17 22  1  0  0  0  0
 18 19  1  6  0  0  0
 18 20  1  0  0  0  0
 19  3  1  0  0  0  0
 20 13  1  1  0  0  0
 20 21  1  0  0  0  0
 21 15  1  6  0  0  0
 21 22  1  0  0  0  0
 22  6  1  1  0  0  0
M  END
>  <CHROM.1>
135.75693320,89.37345941,-52.27317461,28.15539284,10.02416498,13.49894650
1.55078423,1.16612872,1.74890599

>  <Name>
2fcx_lig

>  <RI>
0

>  <Rbt.Current_Directory>
/home/itssahil/PROJECTS/Mol_Feturizer/New_Systems/rnas/2fcx

>  <Rbt.Executable>
rbdock ($Id: //depot/dev/client3/rdock/2013.1/src/exe/rbdock.cxx#4 $)

>  <Rbt.Library>
libRbt.so (2013.1, Build901 2013/11/27)

>  <Rbt.Parameter_File>
/export/apps/rDock/src/rDock_2013.1_src/data/scripts/dock_solv.prm

>  <Rbt.Receptor>
prm/pocket_docking_6.prm

>  <SCORE>
-11.112

>  <SCORE.INTER>
-14.7079

>  <SCORE.INTER.CONST>
1

>  <SCORE.INTER.POLAR>
-2.36564

>  <SCORE.INTER.ROT>
3

>  <SCORE.INTER.SOLV>
10.7757

>  <SCORE.INTER.VDW>
-11.1117

>  <SCORE.INTER.norm>
-0.668542

>  <SCORE.INTRA>
3.59588

>  <SCORE.INTRA.DIHEDRAL>
4.85342

>  <SCORE.INTRA.DIHEDRAL.0>
4.88619

>  <SCORE.INTRA.POLAR>
0

>  <SCORE.INTRA.POLAR.0>
0

>  <SCORE.INTRA.REPUL>
0

>  <SCORE.INTRA.REPUL.0>
0

>  <SCORE.INTRA.SOLV>
3.49042

>  <SCORE.INTRA.SOLV.lig_0>
-73.8187

>  <SCORE.INTRA.VDW>
-0.576034

>  <SCORE.INTRA.VDW.0>
-1.32335

>  <SCORE.INTRA.norm>
0.163449

>  <SCORE.RESTR>
0

>  <SCORE.RESTR.CAVITY>
0

>  <SCORE.RESTR.norm>
0

>  <SCORE.SYSTEM>
0

>  <SCORE.SYSTEM.CONST>
0

>  <SCORE.SYSTEM.DIHEDRAL>
0

>  <SCORE.SYSTEM.SOLV>
0

>  <SCORE.SYSTEM.norm>
0

>  <SCORE.heavy>
22

>  <SCORE.norm>
-0.505092

>  <RMSD>
6.290

$$$$
2fcx_lig
 OpenBabel11021811433D
libRbt.so/2013.1/901 2013/11/27
 22 23  0  0  0  0  0  0  0  0999 V2000
   27.9328    8.5609   18.6532 N   0  0  0  0  0  0  0  0  0  0  0  0
   27.2991    7.4562   13.9148 N   0  0  0  0  0  0  0  0  0  0  0  0
   26.4492    7.2325   10.0958 N   0  0  0  0  0  0  0  0  0  0  0  0
   29.6605   11.5193   15.1774 O   0  0  0  0  0  0  0  0  0  0  0  0
   28.5801   10.6518   15.5316 C   0  0  2  0  0  0  0  0  0  0  0  0
   29.9021   12.1910   12.5360 N   0  0  0  0  0  0  0  0  0  0  0  0
   28.7810   11.2029   17.8584 O   0  0  0  0  0  0  0  0  0  0  0  0
   28.7939   10.1008   16.9434 C   0  0  1  0  0  0  0  0  0  0  0  0
   28.0679   10.0907   13.2177 O   0  0  0  0  0  0  0  0  0  0  0  0
   27.6838    9.1147   17.3142 C   0  0  1  0  0  0  0  0  0  0  0  0
   28.5262    8.9922   11.1990 O   0  0  0  0  0  0  0  0  0  0  0  0
   27.6211    7.9679   16.2997 C   0  0  0  0  0  0  0  0  0  0  0  0
   26.4712   11.3403    9.2129 O   0  0  0  0  0  0  0  0  0  0  0  0
   27.3599    8.5413   14.9041 C   0  0  1  0  0  0  0  0  0  0  0  0
   28.5187   13.0481   10.1725 O   0  0  0  0  0  0  0  0  0  0  0  0
   28.4478    9.5358   14.4881 C   0  0  2  0  0  0  0  0  0  0  0  0
   29.0528    9.8958   12.1882 C   0  0  1  0  0  0  0  0  0  0  0  0
   27.3587    9.4877   10.5132 C   0  0  2  0  0  0  0  0  0  0  0  0
   26.8902    8.4824    9.4589 C   0  0  0  0  0  0  0  0  0  0  0  0
   27.6596   10.8157    9.8129 C   0  0  2  0  0  0  0  0  0  0  0  0
   28.1783   11.8287   10.8348 C   0  0  1  0  0  0  0  0  0  0  0  0
   29.4049   11.2378   11.5348 C   0  0  1  0  0  0  0  0  0  0  0  0
  5  4  1  6  0  0  0
  5  8  1  0  0  0  0
  5 16  1  0  0  0  0
  8  7  1  1  0  0  0
  8 10  1  0  0  0  0
 10  1  1  1  0  0  0
 10 12  1  0  0  0  0
 11 18  1  0  0  0  0
 12 14  1  0  0  0  0
 14  2  1  6  0  0  0
 14 16  1  0  0  0  0
 16  9  1  6  0  0  0
 17  9  1  1  0  0  0
 17 11  1  0  0  0  0
 17 22  1  0  0  0  0
 18 19  1  6  0  0  0
 18 20  1  0  0  0  0
 19  3  1  0  0  0  0
 20 13  1  1  0  0  0
 20 21  1  0  0  0  0
 21 15  1  6  0  0  0
 21 22  1  0  0  0  0
 22  6  1  1  0  0  0
M  END
>  <CHROM.1>
116.90213921,112.47543357,64.43644436,28.12406563,10.00385924,13.24419475
1.35870756,1.11198146,1.88549189

>  <Name>
2fcx_lig

>  <RI>
3.23342e+07

>  <Rbt.Current_Directory>
/home/itssahil/PROJECTS/Mol_Feturizer/New_Systems/rnas/2fcx

>  <Rbt.Executable>
rbdock ($Id: //depot/dev/client3/rdock/2013.1/src/exe/rbdock.cxx#4 $)

>  <Rbt.Library>
libRbt.so (2013.1, Build901 2013/11/27)

>  <Rbt.Parameter_File>
/export/apps/rDock/src/rDock_2013.1_src/data/scripts/dock_solv.prm

>  <Rbt.Receptor>
prm/pocket_docking_5.prm

>  <SCORE>
-7.28102

>  <SCORE.INTER>
-12.2614

>  <SCORE.INTER.CONST>
1

>  <SCORE.INTER.POLAR>
-1.87367

>  <SCORE.INTER.ROT>
3

>  <SCORE.INTER.SOLV>
8.907

>  <SCORE.INTER.VDW>
-10.4977

>  <SCORE.INTER.norm>
-0.557335

>  <SCORE.INTRA>
4.98035

>  <SCORE.INTRA.DIHEDRAL>
9.264

>  <SCORE.INTRA.DIHEDRAL.0>
4.88619

>  <SCORE.INTRA.POLAR>
0

>  <SCORE.INTRA.POLAR.0>
0

>  <SCORE.INTRA.REPUL>
0

>  <SCORE.INTRA.REPUL.0>
0

>  <SCORE.INTRA.SOLV>
2.20889

>  <SCORE.INTRA.SOLV.lig_0>
-73.8187

>  <SCORE.INTRA.VDW>
-0.756095

>  <SCORE.INTRA.VDW.0>
-1.32335

>  <SCORE.INTRA.norm>
0.22638

>  <SCORE.RESTR>
0

>  <SCORE.RESTR.CAVITY>
0

>  <SCORE.RESTR.norm>
0

>  <SCORE.SYSTEM>
0

>  <SCORE.SYSTEM.CONST>
0

>  <SCORE.SYSTEM.DIHEDRAL>
0

>  <SCORE.SYSTEM.SOLV>
0

>  <SCORE.SYSTEM.norm>
0

>  <SCORE.heavy>
22

>  <SCORE.norm>
-0.330955

>  <RMSD>
6.293

$$$$
2fcx_lig
 OpenBabel11021811433D
libRbt.so/2013.1/901 2013/11/27
 22 23  0  0  0  0  0  0  0  0999 V2000
   29.0011    9.1087   18.5180 N   0  0  0  0  0  0  0  0  0  0  0  0
   27.9464    8.0591   13.8425 N   0  0  0  0  0  0  0  0  0  0  0  0
   28.0123    7.9686    9.4528 N   0  0  0  0  0  0  0  0  0  0  0  0
   30.3540   12.1425   14.9424 O   0  0  0  0  0  0  0  0  0  0  0  0
   29.3242   11.2527   15.3820 C   0  0  2  0  0  0  0  0  0  0  0  0
   30.2670   12.9636   12.4600 N   0  0  0  0  0  0  0  0  0  0  0  0
   29.7322   11.7749   17.6883 O   0  0  0  0  0  0  0  0  0  0  0  0
   29.6765   10.6859   16.7594 C   0  0  1  0  0  0  0  0  0  0  0  0
   28.6078   10.7152   13.1173 O   0  0  0  0  0  0  0  0  0  0  0  0
   28.6205    9.6768   17.2165 C   0  0  1  0  0  0  0  0  0  0  0  0
   29.0075    9.7648   11.0129 O   0  0  0  0  0  0  0  0  0  0  0  0
   28.4809    8.5432   16.1948 C   0  0  0  0  0  0  0  0  0  0  0  0
   26.6973   12.0862    9.2936 O   0  0  0  0  0  0  0  0  0  0  0  0
   28.0826    9.1315   14.8383 C   0  0  1  0  0  0  0  0  0  0  0  0
   28.6929   13.8638   10.2360 O   0  0  0  0  0  0  0  0  0  0  0  0
   29.1123   10.1491   14.3384 C   0  0  2  0  0  0  0  0  0  0  0  0
   29.5380   10.6424   12.0232 C   0  0  1  0  0  0  0  0  0  0  0  0
   27.7726   10.2231   10.4263 C   0  0  2  0  0  0  0  0  0  0  0  0
   27.3022    9.2515    9.3416 C   0  0  0  0  0  0  0  0  0  0  0  0
   27.9496   11.6052    9.7917 C   0  0  2  0  0  0  0  0  0  0  0  0
   28.4676   12.5894   10.8417 C   0  0  1  0  0  0  0  0  0  0  0  0
   29.7681   12.0391   11.4331 C   0  0  1  0  0  0  0  0  0  0  0  0
  5  4  1  6  0  0  0
  5  8  1  0  0  0  0
  5 16  1  0  0  0  0
  8  7  1  1  0  0  0
  8 10  1  0  0  0  0
 10  1  1  1  0  0  0
 10 12  1  0  0  0  0
 11 18  1  0  0  0  0
 12 14  1  0  0  0  0
 14  2  1  6  0  0  0
 14 16  1  0  0  0  0
 16  9  1  6  0  0  0
 17  9  1  1  0  0  0
 17 11  1  0  0  0  0
 17 22  1  0  0  0  0
 18 19  1  6  0  0  0
 18 20  1  0  0  0  0
 19  3  1  0  0  0  0
 20 13  1  1  0  0  0
 20 21  1  0  0  0  0
 21 15  1  6  0  0  0
 21 22  1  0  0  0  0
 22  6  1  1  0  0  0
M  END
>  <CHROM.1>
112.37027041,114.18952190,15.57612851,28.74719705,10.68358891,13.12152761
1.13236677,1.18862935,2.12611760

>  <Name>
2fcx_lig

>  <RI>
1.55453e+07

>  <Rbt.Current_Directory>
/home/itssahil/PROJECTS/Mol_Feturizer/New_Systems/rnas/2fcx

>  <Rbt.Executable>
rbdock ($Id: //depot/dev/client3/rdock/2013.1/src/exe/rbdock.cxx#4 $)

>  <Rbt.Library>
libRbt.so (2013.1, Build901 2013/11/27)

>  <Rbt.Parameter_File>
/export/apps/rDock/src/rDock_2013.1_src/data/scripts/dock_solv.prm

>  <Rbt.Receptor>
prm/pocket_docking_4.prm

>  <SCORE>
-7.25861

>  <SCORE.INTER>
-14.7965

>  <SCORE.INTER.CONST>
1

>  <SCORE.INTER.POLAR>
-2.26331

>  <SCORE.INTER.ROT>
3

>  <SCORE.INTER.SOLV>
11.1112

>  <SCORE.INTER.VDW>
-11.6237

>  <SCORE.INTER.norm>
-0.672566

>  <SCORE.INTRA>
7.53785

>  <SCORE.INTRA.DIHEDRAL>
13.5157

>  <SCORE.INTRA.DIHEDRAL.0>
4.88619

>  <SCORE.INTRA.POLAR>
0

>  <SCORE.INTRA.POLAR.0>
0

>  <SCORE.INTRA.REPUL>
0

>  <SCORE.INTRA.REPUL.0>
0

>  <SCORE.INTRA.SOLV>
2.03667

>  <SCORE.INTRA.SOLV.lig_0>
-73.8187

>  <SCORE.INTRA.VDW>
-0.238326

>  <SCORE.INTRA.VDW.0>
-1.32335

>  <SCORE.INTRA.norm>
0.342629

>  <SCORE.RESTR>
0

>  <SCORE.RESTR.CAVITY>
0

>  <SCORE.RESTR.norm>
0

>  <SCORE.SYSTEM>
0

>  <SCORE.SYSTEM.CONST>
0

>  <SCORE.SYSTEM.DIHEDRAL>
0

>  <SCORE.SYSTEM.SOLV>
0

>  <SCORE.SYSTEM.norm>
0

>  <SCORE.heavy>
22

>  <SCORE.norm>
-0.329937

>  <RMSD>
6.329

$$$$
2fcx_lig
 OpenBabel11021811433D
libRbt.so/2013.1/901 2013/11/27
 22 23  0  0  0  0  0  0  0  0999 V2000
   29.7709    6.1857   19.7889 N   0  0  0  0  0  0  0  0  0  0  0  0
   29.6287   10.9293   18.5426 N   0  0  0  0  0  0  0  0  0  0  0  0
   29.0474   13.6222   18.6581 N   0  0  0  0  0  0  0  0  0  0  0  0
   29.1618    7.4949   15.1269 O   0  0  0  0  0  0  0  0  0  0  0  0
   29.8260    7.8283   16.3488 C   0  0  2  0  0  0  0  0  0  0  0  0
   29.6583   10.5043   12.9809 N   0  0  0  0  0  0  0  0  0  0  0  0
   30.0002    5.5223   16.9891 O   0  0  0  0  0  0  0  0  0  0  0  0
   29.4948    6.7903   17.4236 C   0  0  1  0  0  0  0  0  0  0  0  0
   29.9334   10.2038   15.8225 O   0  0  0  0  0  0  0  0  0  0  0  0
   30.1399    7.1680   18.7590 C   0  0  1  0  0  0  0  0  0  0  0  0
   28.6559   12.1352   16.1823 O   0  0  0  0  0  0  0  0  0  0  0  0
   29.6799    8.5602   19.2047 C   0  0  0  0  0  0  0  0  0  0  0  0
   31.4357   14.3971   15.2667 O   0  0  0  0  0  0  0  0  0  0  0  0
   30.0644    9.5861   18.1349 C   0  0  1  0  0  0  0  0  0  0  0  0
   30.9650   13.0537   12.8164 O   0  0  0  0  0  0  0  0  0  0  0  0
   29.4402    9.2494   16.7775 C   0  0  2  0  0  0  0  0  0  0  0  0
   28.9078   11.0484   15.2725 C   0  0  1  0  0  0  0  0  0  0  0  0
   29.7882   13.0040   16.3873 C   0  0  2  0  0  0  0  0  0  0  0  0
   29.4211   14.1470   17.3362 C   0  0  0  0  0  0  0  0  0  0  0  0
   30.2584   13.6098   15.0621 C   0  0  2  0  0  0  0  0  0  0  0  0
   30.5864   12.4897   14.0735 C   0  0  1  0  0  0  0  0  0  0  0  0
   29.3519   11.5988   13.9117 C   0  0  1  0  0  0  0  0  0  0  0  0
  5  4  1  6  0  0  0
  5  8  1  0  0  0  0
  5 16  1  0  0  0  0
  8  7  1  6  0  0  0
  8 10  1  0  0  0  0
 10  1  1  1  0  0  0
 10 12  1  0  0  0  0
 11 18  1  0  0  0  0
 12 14  1  0  0  0  0
 14  2  1  1  0  0  0
 14 16  1  0  0  0  0
 16  9  1  6  0  0  0
 17  9  1  1  0  0  0
 17 11  1  0  0  0  0
 17 22  1  0  0  0  0
 18 19  1  1  0  0  0
 18 20  1  0  0  0  0
 19  3  1  0  0  0  0
 20 13  1  1  0  0  0
 20 21  1  0  0  0  0
 21 15  1  6  0  0  0
 21 22  1  0  0  0  0
 22  6  1  6  0  0  0
M  END
>  <CHROM.1>
123.85270392,82.77190309,62.12989821,29.79178742,10.42274954,16.36931538
2.30393991,-1.48229718,-2.84432702

>  <Name>
2fcx_lig

>  <RI>
3.23342e+07

>  <Rbt.Current_Directory>
/home/itssahil/PROJECTS/Mol_Feturizer/New_Systems/rnas/2fcx

>  <Rbt.Executable>
rbdock ($Id: //depot/dev/client3/rdock/2013.1/src/exe/rbdock.cxx#4 $)

>  <Rbt.Library>
libRbt.so (2013.1, Build901 2013/11/27)

>  <Rbt.Parameter_File>
/export/apps/rDock/src/rDock_2013.1_src/data/scripts/dock_solv.prm

>  <Rbt.Receptor>
prm/pocket_docking_5.prm

>  <SCORE>
-5.99697

>  <SCORE.INTER>
-9.47848

>  <SCORE.INTER.CONST>
1

>  <SCORE.INTER.POLAR>
-0.497331

>  <SCORE.INTER.ROT>
3

>  <SCORE.INTER.SOLV>
12.635

>  <SCORE.INTER.VDW>
-14.4729

>  <SCORE.INTER.norm>
-0.43084

>  <SCORE.INTRA>
3.48151

>  <SCORE.INTRA.DIHEDRAL>
4.53265

>  <SCORE.INTRA.DIHEDRAL.0>
4.88619

>  <SCORE.INTRA.POLAR>
0

>  <SCORE.INTRA.POLAR.0>
0

>  <SCORE.INTRA.REPUL>
0

>  <SCORE.INTRA.REPUL.0>
0

>  <SCORE.INTRA.SOLV>
4.18112

>  <SCORE.INTRA.SOLV.lig_0>
-73.8187

>  <SCORE.INTRA.VDW>
-0.87538

>  <SCORE.INTRA.VDW.0>
-1.32335

>  <SCORE.INTRA.norm>
0.15825

>  <SCORE.RESTR>
0

>  <SCORE.RESTR.CAVITY>
0

>  <SCORE.RESTR.norm>
0

>  <SCORE.SYSTEM>
0

>  <SCORE.SYSTEM.CONST>
0

>  <SCORE.SYSTEM.DIHEDRAL>
0

>  <SCORE.SYSTEM.SOLV>
0

>  <SCORE.SYSTEM.norm>
0

>  <SCORE.heavy>
22

>  <SCORE.norm>
-0.27259

>  <RMSD>
6.331

$$$$
2fcx_lig
 OpenBabel11021811433D
libRbt.so/2013.1/901 2013/11/27
 22 23  0  0  0  0  0  0  0  0999 V2000
   29.6723    9.7457   16.1696 N   0  0  0  0  0  0  0  0  0  0  0  0
   27.9340   12.7186   12.6747 N   0  0  0  0  0  0  0  0  0  0  0  0
   27.7529    6.0411   10.5488 N   0  0  0  0  0  0  0  0  0  0  0  0
   26.6294    8.0313   12.7607 O   0  0  0  0  0  0  0  0  0  0  0  0
   27.7106    8.9358   13.0024 C   0  0  2  0  0  0  0  0  0  0  0  0
   27.8893   12.3800    9.2686 N   0  0  0  0  0  0  0  0  0  0  0  0
   28.6616    7.4960   14.6700 O   0  0  0  0  0  0  0  0  0  0  0  0
   28.1692    8.8245   14.4583 C   0  0  1  0  0  0  0  0  0  0  0  0
   27.0390   10.4577   11.2237 O   0  0  0  0  0  0  0  0  0  0  0  0
   29.2793    9.8351   14.7556 C   0  0  1  0  0  0  0  0  0  0  0  0
   28.3461    8.7992   10.2077 O   0  0  0  0  0  0  0  0  0  0  0  0
   28.8044   11.2608   14.4553 C   0  0  0  0  0  0  0  0  0  0  0  0
   25.9591    8.3303    7.4213 O   0  0  0  0  0  0  0  0  0  0  0  0
   28.3961   11.3578   12.9827 C   0  0  1  0  0  0  0  0  0  0  0  0
   26.8138   10.9983    6.9952 O   0  0  0  0  0  0  0  0  0  0  0  0
   27.2843   10.3628   12.6368 C   0  0  2  0  0  0  0  0  0  0  0  0
   28.2070   10.2161   10.4205 C   0  0  1  0  0  0  0  0  0  0  0  0
   27.2562    8.2056    9.4738 C   0  0  2  0  0  0  0  0  0  0  0  0
   27.5040    6.7103    9.2633 C   0  0  0  0  0  0  0  0  0  0  0  0
   27.0984    8.8661    8.1015 C   0  0  2  0  0  0  0  0  0  0  0  0
   26.8982   10.3723    8.2769 C   0  0  1  0  0  0  0  0  0  0  0  0
   28.0782   10.9364    9.0727 C   0  0  1  0  0  0  0  0  0  0  0  0
  5  4  1  1  0  0  0
  5  8  1  0  0  0  0
  5 16  1  0  0  0  0
  8  7  1  6  0  0  0
  8 10  1  0  0  0  0
 10  1  1  1  0  0  0
 10 12  1  0  0  0  0
 11 18  1  0  0  0  0
 12 14  1  0  0  0  0
 14  2  1  1  0  0  0
 14 16  1  0  0  0  0
 16  9  1  6  0  0  0
 17  9  1  1  0  0  0
 17 11  1  0  0  0  0
 17 22  1  0  0  0  0
 18 19  1  6  0  0  0
 18 20  1  0  0  0  0
 19  3  1  0  0  0  0
 20 13  1  1  0  0  0
 20 21  1  0  0  0  0
 21 15  1  6  0  0  0
 21 22  1  0  0  0  0
 22  6  1  1  0  0  0
M  END
>  <CHROM.1>
-63.35925485,85.59381209,54.54561466,27.76753705,9.55706527,11.28129706,-0.27064808
-1.30914077,-0.31711919

>  <Name>
2fcx_lig

>  <RI>
0

>  <Rbt.Current_Directory>
/home/itssahil/PROJECTS/Mol_Feturizer/New_Systems/rnas/2fcx

>  <Rbt.Executable>
rbdock ($Id: //depot/dev/client3/rdock/2013.1/src/exe/rbdock.cxx#4 $)

>  <Rbt.Library>
libRbt.so (2013.1, Build901 2013/11/27)

>  <Rbt.Parameter_File>
/export/apps/rDock/src/rDock_2013.1_src/data/scripts/dock_solv.prm

>  <Rbt.Receptor>
prm/pocket_docking_6.prm

>  <SCORE>
-13.6226

>  <SCORE.INTER>
-14.6235

>  <SCORE.INTER.CONST>
1

>  <SCORE.INTER.POLAR>
-2.94433

>  <SCORE.INTER.ROT>
3

>  <SCORE.INTER.SOLV>
13.4473

>  <SCORE.INTER.VDW>
-10.017

>  <SCORE.INTER.norm>
-0.664704

>  <SCORE.INTRA>
1.00089

>  <SCORE.INTRA.DIHEDRAL>
-1.93662

>  <SCORE.INTRA.DIHEDRAL.0>
4.88619

>  <SCORE.INTRA.POLAR>
0

>  <SCORE.INTRA.POLAR.0>
0

>  <SCORE.INTRA.REPUL>
0

>  <SCORE.INTRA.REPUL.0>
0

>  <SCORE.INTRA.SOLV>
2.76128

>  <SCORE.INTRA.SOLV.lig_0>
-73.8187

>  <SCORE.INTRA.VDW>
0.58856

>  <SCORE.INTRA.VDW.0>
-1.32335

>  <SCORE.INTRA.norm>
0.0454949

>  <SCORE.RESTR>
0

>  <SCORE.RESTR.CAVITY>
0

>  <SCORE.RESTR.norm>
0

>  <SCORE.SYSTEM>
0

>  <SCORE.SYSTEM.CONST>
0

>  <SCORE.SYSTEM.DIHEDRAL>
0

>  <SCORE.SYSTEM.SOLV>
0

>  <SCORE.SYSTEM.norm>
0

>  <SCORE.heavy>
22

>  <SCORE.norm>
-0.619209

>  <RMSD>
6.331

$$$$
2fcx_lig
 OpenBabel11021811433D
libRbt.so/2013.1/901 2013/11/27
 22 23  0  0  0  0  0  0  0  0999 V2000
   27.3771    5.4307   20.0102 N   0  0  0  0  0  0  0  0  0  0  0  0
   25.7109    8.6800   16.7329 N   0  0  0  0  0  0  0  0  0  0  0  0
   25.4777    8.0304   11.9239 N   0  0  0  0  0  0  0  0  0  0  0  0
   30.3304    7.1636   16.5326 O   0  0  0  0  0  0  0  0  0  0  0  0
   29.2607    7.4996   17.4204 C   0  0  2  0  0  0  0  0  0  0  0  0
   30.1177   11.3580   15.1323 N   0  0  0  0  0  0  0  0  0  0  0  0
   30.0600    5.9857   19.1019 O   0  0  0  0  0  0  0  0  0  0  0  0
   28.9142    6.2960   18.3000 C   0  0  1  0  0  0  0  0  0  0  0  0
   28.3762    9.2271   15.9492 O   0  0  0  0  0  0  0  0  0  0  0  0
   27.7244    6.6134   19.2088 C   0  0  1  0  0  0  0  0  0  0  0  0
   28.6471    8.1686   13.8761 O   0  0  0  0  0  0  0  0  0  0  0  0
   26.5075    7.0315   18.3765 C   0  0  0  0  0  0  0  0  0  0  0  0
   26.3897   10.5291   12.1402 O   0  0  0  0  0  0  0  0  0  0  0  0
   26.8654    8.2643   17.5418 C   0  0  1  0  0  0  0  0  0  0  0  0
   28.5054   12.2413   12.9291 O   0  0  0  0  0  0  0  0  0  0  0  0
   28.0537    7.9942   16.6140 C   0  0  2  0  0  0  0  0  0  0  0  0
   29.2588    9.0604   14.8263 C   0  0  1  0  0  0  0  0  0  0  0  0
   27.4147    8.6637   13.3150 C   0  0  2  0  0  0  0  0  0  0  0  0
   26.8554    7.6719   12.2926 C   0  0  0  0  0  0  0  0  0  0  0  0
   27.6350   10.0066   12.6133 C   0  0  2  0  0  0  0  0  0  0  0  0
   28.2410   11.0072   13.5988 C   0  0  1  0  0  0  0  0  0  0  0  0
   29.5346   10.4170   14.1665 C   0  0  1  0  0  0  0  0  0  0  0  0
  5  4  1  6  0  0  0
  5  8  1  0  0  0  0
  5 16  1  0  0  0  0
  8  7  1  1  0  0  0
  8 10  1  0  0  0  0
 10  1  1  6  0  0  0
 10 12  1  0  0  0  0
 11 18  1  0  0  0  0
 12 14  1  0  0  0  0
 14  2  1  6  0  0  0
 14 16  1  0  0  0  0
 16  9  1  1  0  0  0
 17  9  1  1  0  0  0
 17 11  1  0  0  0  0
 17 22  1  0  0  0  0
 18 19  1  6  0  0  0
 18 20  1  0  0  0  0
 19  3  1  0  0  0  0
 20 13  1  1  0  0  0
 20 21  1  0  0  0  0
 21 15  1  6  0  0  0
 21 22  1  0  0  0  0
 22  6  1  1  0  0  0
M  END
>  <CHROM.1>
73.33576869,58.56835522,168.39728740,28.07503446,8.52746470,15.54814951,1.46091798
0.49823324,2.18097461

>  <Name>
2fcx_lig

>  <RI>
1.21945e+07

>  <Rbt.Current_Directory>
/home/itssahil/PROJECTS/Mol_Feturizer/New_Systems/rnas/2fcx

>  <Rbt.Executable>
rbdock ($Id: //depot/dev/client3/rdock/2013.1/src/exe/rbdock.cxx#4 $)

>  <Rbt.Library>
libRbt.so (2013.1, Build901 2013/11/27)

>  <Rbt.Parameter_File>
/export/apps/rDock/src/rDock_2013.1_src/data/scripts/dock_solv.prm

>  <Rbt.Receptor>
prm/pocket_docking_3.prm

>  <SCORE>
-9.32061

>  <SCORE.INTER>
-8.16368

>  <SCORE.INTER.CONST>
1

>  <SCORE.INTER.POLAR>
-0.569073

>  <SCORE.INTER.ROT>
3

>  <SCORE.INTER.SOLV>
12.36

>  <SCORE.INTER.VDW>
-13.2656

>  <SCORE.INTER.norm>
-0.371076

>  <SCORE.INTRA>
-1.16033

>  <SCORE.INTRA.DIHEDRAL>
-3.5478

>  <SCORE.INTRA.DIHEDRAL.0>
4.88619

>  <SCORE.INTRA.POLAR>
0

>  <SCORE.INTRA.POLAR.0>
0

>  <SCORE.INTRA.REPUL>
0

>  <SCORE.INTRA.REPUL.0>
0

>  <SCORE.INTRA.SOLV>
0.284091

>  <SCORE.INTRA.SOLV.lig_0>
-73.8187

>  <SCORE.INTRA.VDW>
0.471517

>  <SCORE.INTRA.VDW.0>
-1.32335

>  <SCORE.INTRA.norm>
-0.0527425

>  <SCORE.RESTR>
0.00340922

>  <SCORE.RESTR.CAVITY>
0.00340922

>  <SCORE.RESTR.norm>
0.000154964

>  <SCORE.SYSTEM>
0

>  <SCORE.SYSTEM.CONST>
0

>  <SCORE.SYSTEM.DIHEDRAL>
0

>  <SCORE.SYSTEM.SOLV>
0

>  <SCORE.SYSTEM.norm>
0

>  <SCORE.heavy>
22

>  <SCORE.norm>
-0.423664

>  <RMSD>
6.339

$$$$
2fcx_lig
 OpenBabel11021811433D
libRbt.so/2013.1/901 2013/11/27
 22 23  0  0  0  0  0  0  0  0999 V2000
   28.8638    8.9897   18.5197 N   0  0  0  0  0  0  0  0  0  0  0  0
   27.8698    8.0283   13.8121 N   0  0  0  0  0  0  0  0  0  0  0  0
   28.0117    7.9313    9.4780 N   0  0  0  0  0  0  0  0  0  0  0  0
   30.3381   12.0465   15.0124 O   0  0  0  0  0  0  0  0  0  0  0  0
   29.2835   11.1713   15.4214 C   0  0  2  0  0  0  0  0  0  0  0  0
   30.2847   12.9136   12.5026 N   0  0  0  0  0  0  0  0  0  0  0  0
   29.6617   11.6523   17.7417 O   0  0  0  0  0  0  0  0  0  0  0  0
   29.6006   10.5780   16.7961 C   0  0  1  0  0  0  0  0  0  0  0  0
   28.5959   10.6806   13.1372 O   0  0  0  0  0  0  0  0  0  0  0  0
   28.5171    9.5839   17.2203 C   0  0  1  0  0  0  0  0  0  0  0  0
   29.0164    9.7258   11.0388 O   0  0  0  0  0  0  0  0  0  0  0  0
   28.3729    8.4680   16.1800 C   0  0  0  0  0  0  0  0  0  0  0  0
   26.7519   12.0675    9.2867 O   0  0  0  0  0  0  0  0  0  0  0  0
   28.0099    9.0833   14.8256 C   0  0  1  0  0  0  0  0  0  0  0  0
   28.7503   13.8272   10.2565 O   0  0  0  0  0  0  0  0  0  0  0  0
   29.0679   10.0872   14.3583 C   0  0  2  0  0  0  0  0  0  0  0  0
   29.5407   10.5989   12.0562 C   0  0  1  0  0  0  0  0  0  0  0  0
   27.7941   10.1951   10.4348 C   0  0  2  0  0  0  0  0  0  0  0  0
   27.3301    9.2274    9.3440 C   0  0  0  0  0  0  0  0  0  0  0  0
   27.9926   11.5753    9.8024 C   0  0  2  0  0  0  0  0  0  0  0  0
   28.5048   12.5552   10.8593 C   0  0  1  0  0  0  0  0  0  0  0  0
   29.7918   11.9932   11.4690 C   0  0  1  0  0  0  0  0  0  0  0  0
  5  4  1  6  0  0  0
  5  8  1  0  0  0  0
  5 16  1  0  0  0  0
  8  7  1  1  0  0  0
  8 10  1  0  0  0  0
 10  1  1  1  0  0  0
 10 12  1  0  0  0  0
 11 18  1  0  0  0  0
 12 14  1  0  0  0  0
 14  2  1  6  0  0  0
 14 16  1  0  0  0  0
 16  9  1  6  0  0  0
 17  9  1  1  0  0  0
 17 11  1  0  0  0  0
 17 22  1  0  0  0  0
 18 19  1  6  0  0  0
 18 20  1  0  0  0  0
 19  3  1  0  0  0  0
 20 13  1  1  0  0  0
 20 21  1  0  0  0  0
 21 15  1  6  0  0  0
 21 22  1  0  0  0  0
 22  6  1  1  0  0  0
M  END
>  <CHROM.1>
112.66627483,113.04426790,16.44135581,28.72711034,10.62641321,13.14023581
1.19019217,1.18209681,2.08117119

>  <Name>
2fcx_lig

>  <RI>
1.55453e+07

>  <Rbt.Current_Directory>
/home/itssahil/PROJECTS/Mol_Feturizer/New_Systems/rnas/2fcx

>  <Rbt.Executable>
rbdock ($Id: //depot/dev/client3/rdock/2013.1/src/exe/rbdock.cxx#4 $)

>  <Rbt.Library>
libRbt.so (2013.1, Build901 2013/11/27)

>  <Rbt.Parameter_File>
/export/apps/rDock/src/rDock_2013.1_src/data/scripts/dock_solv.prm

>  <Rbt.Receptor>
prm/pocket_docking_4.prm

>  <SCORE>
-7.35744

>  <SCORE.INTER>
-14.7614

>  <SCORE.INTER.CONST>
1

>  <SCORE.INTER.POLAR>
-2.26812

>  <SCORE.INTER.ROT>
3

>  <SCORE.INTER.SOLV>
11.0395

>  <SCORE.INTER.VDW>
-11.5604

>  <SCORE.INTER.norm>
-0.670972

>  <SCORE.INTRA>
7.40394

>  <SCORE.INTRA.DIHEDRAL>
13.3778

>  <SCORE.INTRA.DIHEDRAL.0>
4.88619

>  <SCORE.INTRA.POLAR>
0

>  <SCORE.INTRA.POLAR.0>
0

>  <SCORE.INTRA.REPUL>
0

>  <SCORE.INTRA.REPUL.0>
0

>  <SCORE.INTRA.SOLV>
2.10248

>  <SCORE.INTRA.SOLV.lig_0>
-73.8187

>  <SCORE.INTRA.VDW>
-0.336217

>  <SCORE.INTRA.VDW.0>
-1.32335

>  <SCORE.INTRA.norm>
0.336543

>  <SCORE.RESTR>
0

>  <SCORE.RESTR.CAVITY>
0

>  <SCORE.RESTR.norm>
0

>  <SCORE.SYSTEM>
0

>  <SCORE.SYSTEM.CONST>
0

>  <SCORE.SYSTEM.DIHEDRAL>
0

>  <SCORE.SYSTEM.SOLV>
0

>  <SCORE.SYSTEM.norm>
0

>  <SCORE.heavy>
22

>  <SCORE.norm>
-0.334429

>  <RMSD>
6.340

$$$$
2fcx_lig
 OpenBabel11021811433D
libRbt.so/2013.1/901 2013/11/27
 22 23  0  0  0  0  0  0  0  0999 V2000
   26.7393    6.2034   18.9377 N   0  0  0  0  0  0  0  0  0  0  0  0
   25.4354    9.4623   15.5093 N   0  0  0  0  0  0  0  0  0  0  0  0
   27.8849    8.6142    9.9992 N   0  0  0  0  0  0  0  0  0  0  0  0
   29.9998    7.7827   15.6675 O   0  0  0  0  0  0  0  0  0  0  0  0
   28.8807    8.1684   16.4702 C   0  0  2  0  0  0  0  0  0  0  0  0
   30.2843   11.7958   14.4815 N   0  0  0  0  0  0  0  0  0  0  0  0
   29.4998    6.6514   18.2233 O   0  0  0  0  0  0  0  0  0  0  0  0
   28.4278    6.9902   17.3357 C   0  0  1  0  0  0  0  0  0  0  0  0
   28.1690    9.9049   14.9179 O   0  0  0  0  0  0  0  0  0  0  0  0
   27.1867    7.3618   18.1505 C   0  0  1  0  0  0  0  0  0  0  0  0
   28.5072    8.9871   12.7884 O   0  0  0  0  0  0  0  0  0  0  0  0
   26.0499    7.8103   17.2260 C   0  0  0  0  0  0  0  0  0  0  0  0
   26.8264   11.8035   11.0783 O   0  0  0  0  0  0  0  0  0  0  0  0
   26.5120    9.0180   16.4058 C   0  0  1  0  0  0  0  0  0  0  0  0
   29.0714   13.0947   12.2285 O   0  0  0  0  0  0  0  0  0  0  0  0
   27.7545    8.6935   15.5713 C   0  0  2  0  0  0  0  0  0  0  0  0
   29.1354    9.6930   13.8744 C   0  0  1  0  0  0  0  0  0  0  0  0
   27.4303    9.7124   12.1614 C   0  0  2  0  0  0  0  0  0  0  0  0
   26.8469    8.9057   10.9992 C   0  0  0  0  0  0  0  0  0  0  0  0
   27.9216   11.0563   11.6167 C   0  0  2  0  0  0  0  0  0  0  0  0
   28.5563   11.8673   12.7477 C   0  0  1  0  0  0  0  0  0  0  0  0
   29.6786   11.0384   13.3779 C   0  0  1  0  0  0  0  0  0  0  0  0
  5  4  1  6  0  0  0
  5  8  1  0  0  0  0
  5 16  1  0  0  0  0
  8  7  1  1  0  0  0
  8 10  1  0  0  0  0
 10  1  1  6  0  0  0
 10 12  1  0  0  0  0
 11 18  1  0  0  0  0
 12 14  1  0  0  0  0
 14  2  1  6  0  0  0
 14 16  1  0  0  0  0
 16  9  1  1  0  0  0
 17  9  1  1  0  0  0
 17 11  1  0  0  0  0
 17 22  1  0  0  0  0
 18 19  1  6  0  0  0
 18 20  1  0  0  0  0
 19  3  1  0  0  0  0
 20 13  1  1  0  0  0
 20 21  1  0  0  0  0
 21 15  1  6  0  0  0
 21 22  1  0  0  0  0
 22  6  1  1  0  0  0
M  END
>  <CHROM.1>
72.72330821,67.86313539,-58.79396028,28.05727372,9.31423437,14.51254220,1.63592840
0.55233593,2.09941316

>  <Name>
2fcx_lig

>  <RI>
1.21945e+07

>  <Rbt.Current_Directory>
/home/itssahil/PROJECTS/Mol_Feturizer/New_Systems/rnas/2fcx

>  <Rbt.Executable>
rbdock ($Id: //depot/dev/client3/rdock/2013.1/src/exe/rbdock.cxx#4 $)

>  <Rbt.Library>
libRbt.so (2013.1, Build901 2013/11/27)

>  <Rbt.Parameter_File>
/export/apps/rDock/src/rDock_2013.1_src/data/scripts/dock_solv.prm

>  <Rbt.Receptor>
prm/pocket_docking_3.prm

>  <SCORE>
-9.89062

>  <SCORE.INTER>
-8.65899

>  <SCORE.INTER.CONST>
1

>  <SCORE.INTER.POLAR>
-0.87178

>  <SCORE.INTER.ROT>
3

>  <SCORE.INTER.SOLV>
13.4149

>  <SCORE.INTER.VDW>
-12.9384

>  <SCORE.INTER.norm>
-0.39359

>  <SCORE.INTRA>
-1.23164

>  <SCORE.INTRA.DIHEDRAL>
-3.80249

>  <SCORE.INTRA.DIHEDRAL.0>
4.88619

>  <SCORE.INTRA.POLAR>
0

>  <SCORE.INTRA.POLAR.0>
0

>  <SCORE.INTRA.REPUL>
0

>  <SCORE.INTRA.REPUL.0>
0

>  <SCORE.INTRA.SOLV>
0.777391

>  <SCORE.INTRA.SOLV.lig_0>
-73.8187

>  <SCORE.INTRA.VDW>
0.280912

>  <SCORE.INTRA.VDW.0>
-1.32335

>  <SCORE.INTRA.norm>
-0.0559835

>  <SCORE.RESTR>
0

>  <SCORE.RESTR.CAVITY>
0

>  <SCORE.RESTR.norm>
0

>  <SCORE.SYSTEM>
0

>  <SCORE.SYSTEM.CONST>
0

>  <SCORE.SYSTEM.DIHEDRAL>
0

>  <SCORE.SYSTEM.SOLV>
0

>  <SCORE.SYSTEM.norm>
0

>  <SCORE.heavy>
22

>  <SCORE.norm>
-0.449574

>  <RMSD>
6.359

$$$$
2fcx_lig
 OpenBabel11021811433D
libRbt.so/2013.1/901 2013/11/27
 22 23  0  0  0  0  0  0  0  0999 V2000
   28.8751    9.0238   18.3906 N   0  0  0  0  0  0  0  0  0  0  0  0
   27.8049    8.0065   13.7115 N   0  0  0  0  0  0  0  0  0  0  0  0
   28.0602    7.9349    9.2830 N   0  0  0  0  0  0  0  0  0  0  0  0
   30.3107   12.0275   14.8219 O   0  0  0  0  0  0  0  0  0  0  0  0
   29.2582   11.1629   15.2581 C   0  0  2  0  0  0  0  0  0  0  0  0
   30.1637   12.9324   12.3943 N   0  0  0  0  0  0  0  0  0  0  0  0
   29.6739   11.6720   17.5660 O   0  0  0  0  0  0  0  0  0  0  0  0
   29.5933   10.5859   16.6355 C   0  0  1  0  0  0  0  0  0  0  0  0
   28.5336   10.6462   12.9912 O   0  0  0  0  0  0  0  0  0  0  0  0
   28.5115    9.6028   17.0890 C   0  0  1  0  0  0  0  0  0  0  0  0
   28.9919    9.7296   10.8837 O   0  0  0  0  0  0  0  0  0  0  0  0
   28.3461    8.4743   16.0656 C   0  0  0  0  0  0  0  0  0  0  0  0
   26.6737   12.0300    9.1472 O   0  0  0  0  0  0  0  0  0  0  0  0
   27.9655    9.0739   14.7090 C   0  0  1  0  0  0  0  0  0  0  0  0
   28.6173   13.8316   10.1505 O   0  0  0  0  0  0  0  0  0  0  0  0
   29.0212   10.0663   14.2126 C   0  0  2  0  0  0  0  0  0  0  0  0
   29.4863   10.6040   11.9149 C   0  0  1  0  0  0  0  0  0  0  0  0
   27.7606   10.1727   10.2783 C   0  0  2  0  0  0  0  0  0  0  0  0
   27.3296    9.2063    9.1728 C   0  0  0  0  0  0  0  0  0  0  0  0
   27.9246   11.5656    9.6641 C   0  0  2  0  0  0  0  0  0  0  0  0
   28.4036   12.5459   10.7361 C   0  0  1  0  0  0  0  0  0  0  0  0
   29.7022   12.0119   11.3465 C   0  0  1  0  0  0  0  0  0  0  0  0
  5  4  1  6  0  0  0
  5  8  1  0  0  0  0
  5 16  1  0  0  0  0
  8  7  1  1  0  0  0
  8 10  1  0  0  0  0
 10  1  1  1  0  0  0
 10 12  1  0  0  0  0
 11 18  1  0  0  0  0
 12 14  1  0  0  0  0
 14  2  1  6  0  0  0
 14 16  1  0  0  0  0
 16  9  1  6  0  0  0
 17  9  1  1  0  0  0
 17 11  1  0  0  0  0
 17 22  1  0  0  0  0
 18 19  1  6  0  0  0
 18 20  1  0  0  0  0
 19  3  1  0  0  0  0
 20 13  1  1  0  0  0
 20 21  1  0  0  0  0
 21 15  1  6  0  0  0
 21 22  1  0  0  0  0
 22  6  1  1  0  0  0
M  END
>  <CHROM.1>
109.80551661,113.80497963,15.61280413,28.68404603,10.62280599,12.99748080
1.15705552,1.19499842,2.10971756

>  <Name>
2fcx_lig

>  <RI>
0

>  <Rbt.Current_Directory>
/home/itssahil/PROJECTS/Mol_Feturizer/New_Systems/rnas/2fcx

>  <Rbt.Executable>
rbdock ($Id: //depot/dev/client3/rdock/2013.1/src/exe/rbdock.cxx#4 $)

>  <Rbt.Library>
libRbt.so (2013.1, Build901 2013/11/27)

>  <Rbt.Parameter_File>
/export/apps/rDock/src/rDock_2013.1_src/data/scripts/dock_solv.prm

>  <Rbt.Receptor>
prm/pocket_docking_6.prm

>  <SCORE>
-7.60904

>  <SCORE.INTER>
-15.0597

>  <SCORE.INTER.CONST>
1

>  <SCORE.INTER.POLAR>
-2.28367

>  <SCORE.INTER.ROT>
3

>  <SCORE.INTER.SOLV>
11.0738

>  <SCORE.INTER.VDW>
-11.7188

>  <SCORE.INTER.norm>
-0.684533

>  <SCORE.INTRA>
7.45069

>  <SCORE.INTRA.DIHEDRAL>
13.2723

>  <SCORE.INTRA.DIHEDRAL.0>
4.88619

>  <SCORE.INTRA.POLAR>
0

>  <SCORE.INTRA.POLAR.0>
0

>  <SCORE.INTRA.REPUL>
0

>  <SCORE.INTRA.REPUL.0>
0

>  <SCORE.INTRA.SOLV>
1.99784

>  <SCORE.INTRA.SOLV.lig_0>
-73.8187

>  <SCORE.INTRA.VDW>
-0.184386

>  <SCORE.INTRA.VDW.0>
-1.32335

>  <SCORE.INTRA.norm>
0.338668

>  <SCORE.RESTR>
0

>  <SCORE.RESTR.CAVITY>
0

>  <SCORE.RESTR.norm>
0

>  <SCORE.SYSTEM>
0

>  <SCORE.SYSTEM.CONST>
0

>  <SCORE.SYSTEM.DIHEDRAL>
0

>  <SCORE.SYSTEM.SOLV>
0

>  <SCORE.SYSTEM.norm>
0

>  <SCORE.heavy>
22

>  <SCORE.norm>
-0.345865

>  <RMSD>
6.367

$$$$
2fcx_lig
 OpenBabel11021811433D
libRbt.so/2013.1/901 2013/11/27
 22 23  0  0  0  0  0  0  0  0999 V2000
   29.0677    7.6813   18.0777 N   0  0  0  0  0  0  0  0  0  0  0  0
   29.8089   12.2042   16.3259 N   0  0  0  0  0  0  0  0  0  0  0  0
   33.0274   13.9924   13.9727 N   0  0  0  0  0  0  0  0  0  0  0  0
   27.9750    8.7412   13.4407 O   0  0  0  0  0  0  0  0  0  0  0  0
   28.9005    8.9926   14.5017 C   0  0  2  0  0  0  0  0  0  0  0  0
   27.0950   11.9907   12.2596 N   0  0  0  0  0  0  0  0  0  0  0  0
   28.6468    6.7706   15.3713 O   0  0  0  0  0  0  0  0  0  0  0  0
   28.5310    8.1533   15.7271 C   0  0  1  0  0  0  0  0  0  0  0  0
   29.4597   11.2210   13.6936 O   0  0  0  0  0  0  0  0  0  0  0  0
   29.4682    8.4609   16.8972 C   0  0  1  0  0  0  0  0  0  0  0  0
   30.2072   13.4419   13.7162 O   0  0  0  0  0  0  0  0  0  0  0  0
   29.4266    9.9533   17.2427 C   0  0  0  0  0  0  0  0  0  0  0  0
   31.2602   13.3434   10.1717 O   0  0  0  0  0  0  0  0  0  0  0  0
   29.8451   10.7681   16.0157 C   0  0  1  0  0  0  0  0  0  0  0  0
   28.4574   12.9945    9.9422 O   0  0  0  0  0  0  0  0  0  0  0  0
   28.9336   10.4933   14.8160 C   0  0  2  0  0  0  0  0  0  0  0  0
   29.0434   12.5968   13.6549 C   0  0  1  0  0  0  0  0  0  0  0  0
   31.1036   13.2890   12.5972 C   0  0  2  0  0  0  0  0  0  0  0  0
   32.2895   14.2475   12.7265 C   0  0  0  0  0  0  0  0  0  0  0  0
   30.3855   13.5858   11.2779 C   0  0  2  0  0  0  0  0  0  0  0  0
   29.1638   12.6755   11.1425 C   0  0  1  0  0  0  0  0  0  0  0  0
   28.2631   12.8753   12.3644 C   0  0  1  0  0  0  0  0  0  0  0  0
  5  4  1  6  0  0  0
  5  8  1  0  0  0  0
  5 16  1  0  0  0  0
  8  7  1  6  0  0  0
  8 10  1  0  0  0  0
 10  1  1  1  0  0  0
 10 12  1  0  0  0  0
 11 18  1  0  0  0  0
 12 14  1  0  0  0  0
 14  2  1  1  0  0  0
 14 16  1  0  0  0  0
 16  9  1  6  0  0  0
 17  9  1  6  0  0  0
 17 11  1  0  0  0  0
 17 22  1  0  0  0  0
 18 19  1  1  0  0  0
 18 20  1  0  0  0  0
 19  3  1  0  0  0  0
 20 13  1  6  0  0  0
 20 21  1  0  0  0  0
 21 15  1  6  0  0  0
 21 22  1  0  0  0  0
 22  6  1  6  0  0  0
M  END
>  <CHROM.1>
156.12577824,119.70937033,59.09913551,29.55947801,11.28960795,13.86090764
-1.86722954,-0.77875425,-0.95558936

>  <Name>
2fcx_lig

>  <RI>
1.55453e+07

>  <Rbt.Current_Directory>
/home/itssahil/PROJECTS/Mol_Feturizer/New_Systems/rnas/2fcx

>  <Rbt.Executable>
rbdock ($Id: //depot/dev/client3/rdock/2013.1/src/exe/rbdock.cxx#4 $)

>  <Rbt.Library>
libRbt.so (2013.1, Build901 2013/11/27)

>  <Rbt.Parameter_File>
/export/apps/rDock/src/rDock_2013.1_src/data/scripts/dock_solv.prm

>  <Rbt.Receptor>
prm/pocket_docking_4.prm

>  <SCORE>
-10.5859

>  <SCORE.INTER>
-13.5632

>  <SCORE.INTER.CONST>
1

>  <SCORE.INTER.POLAR>
-1.99212

>  <SCORE.INTER.ROT>
3

>  <SCORE.INTER.SOLV>
10.2657

>  <SCORE.INTER.VDW>
-11.4236

>  <SCORE.INTER.norm>
-0.616508

>  <SCORE.INTRA>
2.97726

>  <SCORE.INTRA.DIHEDRAL>
4.78732

>  <SCORE.INTRA.DIHEDRAL.0>
4.88619

>  <SCORE.INTRA.POLAR>
0

>  <SCORE.INTRA.POLAR.0>
0

>  <SCORE.INTRA.REPUL>
0

>  <SCORE.INTRA.REPUL.0>
0

>  <SCORE.INTRA.SOLV>
1.48306

>  <SCORE.INTRA.SOLV.lig_0>
-73.8187

>  <SCORE.INTRA.VDW>
-0.157924

>  <SCORE.INTRA.VDW.0>
-1.32335

>  <SCORE.INTRA.norm>
0.13533

>  <SCORE.RESTR>
0

>  <SCORE.RESTR.CAVITY>
0

>  <SCORE.RESTR.norm>
0

>  <SCORE.SYSTEM>
0

>  <SCORE.SYSTEM.CONST>
0

>  <SCORE.SYSTEM.DIHEDRAL>
0

>  <SCORE.SYSTEM.SOLV>
0

>  <SCORE.SYSTEM.norm>
0

>  <SCORE.heavy>
22

>  <SCORE.norm>
-0.481177

>  <RMSD>
6.380

$$$$
2fcx_lig
 OpenBabel11021811433D
libRbt.so/2013.1/901 2013/11/27
 22 23  0  0  0  0  0  0  0  0999 V2000
   28.7561    7.5775   18.0410 N   0  0  0  0  0  0  0  0  0  0  0  0
   29.5902   12.1541   16.4811 N   0  0  0  0  0  0  0  0  0  0  0  0
   33.0458   14.0885   13.9078 N   0  0  0  0  0  0  0  0  0  0  0  0
   28.1360    8.7336   13.3402 O   0  0  0  0  0  0  0  0  0  0  0  0
   28.9401    8.9740   14.4983 C   0  0  2  0  0  0  0  0  0  0  0  0
   27.1121   11.9230   12.4353 N   0  0  0  0  0  0  0  0  0  0  0  0
   28.6391    6.7272   15.2852 O   0  0  0  0  0  0  0  0  0  0  0  0
   28.4601    8.0986   15.6583 C   0  0  1  0  0  0  0  0  0  0  0  0
   29.5382   11.2307   13.8048 O   0  0  0  0  0  0  0  0  0  0  0  0
   29.2633    8.3926   16.9275 C   0  0  1  0  0  0  0  0  0  0  0  0
   30.2442   13.4646   13.7493 O   0  0  0  0  0  0  0  0  0  0  0  0
   29.1570    9.8750   17.3007 C   0  0  0  0  0  0  0  0  0  0  0  0
   31.1779   13.2992   10.1741 O   0  0  0  0  0  0  0  0  0  0  0  0
   29.6864   10.7269   16.1436 C   0  0  1  0  0  0  0  0  0  0  0  0
   28.3759   12.8948   10.0494 O   0  0  0  0  0  0  0  0  0  0  0  0
   28.9112   10.4668   14.8486 C   0  0  2  0  0  0  0  0  0  0  0  0
   29.0950   12.5975   13.7480 C   0  0  1  0  0  0  0  0  0  0  0  0
   31.1048   13.3007   12.6041 C   0  0  2  0  0  0  0  0  0  0  0  0
   32.2763   14.2831   12.6699 C   0  0  0  0  0  0  0  0  0  0  0  0
   30.3369   13.5527   11.3037 C   0  0  2  0  0  0  0  0  0  0  0  0
   29.1286   12.6175   11.2319 C   0  0  1  0  0  0  0  0  0  0  0  0
   28.2663   12.8307   12.4789 C   0  0  1  0  0  0  0  0  0  0  0  0
  5  4  1  6  0  0  0
  5  8  1  0  0  0  0
  5 16  1  0  0  0  0
  8  7  1  6  0  0  0
  8 10  1  0  0  0  0
 10  1  1  1  0  0  0
 10 12  1  0  0  0  0
 11 18  1  0  0  0  0
 12 14  1  0  0  0  0
 14  2  1  1  0  0  0
 14 16  1  0  0  0  0
 16  9  1  6  0  0  0
 17  9  1  6  0  0  0
 17 11  1  0  0  0  0
 17 22  1  0  0  0  0
 18 19  1  1  0  0  0
 18 20  1  0  0  0  0
 19  3  1  0  0  0  0
 20 13  1  6  0  0  0
 20 21  1  0  0  0  0
 21 15  1  6  0  0  0
 21 22  1  0  0  0  0
 22  6  1  6  0  0  0
M  END
>  <CHROM.1>
155.71788447,128.31613442,58.03144976,29.51110004,11.25967488,13.89359693
-1.91911587,-0.81942256,-0.99144411

>  <Name>
2fcx_lig

>  <RI>
4.08374e+07

>  <Rbt.Current_Directory>
/home/itssahil/PROJECTS/Mol_Feturizer/New_Systems/rnas/2fcx

>  <Rbt.Executable>
rbdock ($Id: //depot/dev/client3/rdock/2013.1/src/exe/rbdock.cxx#4 $)

>  <Rbt.Library>
libRbt.so (2013.1, Build901 2013/11/27)

>  <Rbt.Parameter_File>
/export/apps/rDock/src/rDock_2013.1_src/data/scripts/dock_solv.prm

>  <Rbt.Receptor>
prm/pocket_docking_7.prm

>  <SCORE>
-10.3576

>  <SCORE.INTER>
-13.2734

>  <SCORE.INTER.CONST>
1

>  <SCORE.INTER.POLAR>
-1.95939

>  <SCORE.INTER.ROT>
3

>  <SCORE.INTER.SOLV>
10.3743

>  <SCORE.INTER.VDW>
-11.3757

>  <SCORE.INTER.norm>
-0.603336

>  <SCORE.INTRA>
2.89979

>  <SCORE.INTRA.DIHEDRAL>
4.53678

>  <SCORE.INTRA.DIHEDRAL.0>
4.88619

>  <SCORE.INTRA.POLAR>
0

>  <SCORE.INTRA.POLAR.0>
0

>  <SCORE.INTRA.REPUL>
0

>  <SCORE.INTRA.REPUL.0>
0

>  <SCORE.INTRA.SOLV>
1.45826

>  <SCORE.INTRA.SOLV.lig_0>
-73.8187

>  <SCORE.INTRA.VDW>
-0.0977343

>  <SCORE.INTRA.VDW.0>
-1.32335

>  <SCORE.INTRA.norm>
0.131808

>  <SCORE.RESTR>
0.0159572

>  <SCORE.RESTR.CAVITY>
0.0159572

>  <SCORE.RESTR.norm>
0.000725328

>  <SCORE.SYSTEM>
0

>  <SCORE.SYSTEM.CONST>
0

>  <SCORE.SYSTEM.DIHEDRAL>
0

>  <SCORE.SYSTEM.SOLV>
0

>  <SCORE.SYSTEM.norm>
0

>  <SCORE.heavy>
22

>  <SCORE.norm>
-0.470802

>  <RMSD>
6.380

$$$$
2fcx_lig
 OpenBabel11021811433D
libRbt.so/2013.1/901 2013/11/27
 22 23  0  0  0  0  0  0  0  0999 V2000
   27.4720    8.9834   18.8277 N   0  0  0  0  0  0  0  0  0  0  0  0
   29.3232   10.7207   14.6290 N   0  0  0  0  0  0  0  0  0  0  0  0
   28.6176   13.3742   10.3944 N   0  0  0  0  0  0  0  0  0  0  0  0
   24.9859    8.5145   14.6542 O   0  0  0  0  0  0  0  0  0  0  0  0
   26.2932    8.5025   15.2341 C   0  0  2  0  0  0  0  0  0  0  0  0
   26.3505    7.3215   11.3292 N   0  0  0  0  0  0  0  0  0  0  0  0
   25.4710    7.5809   17.2915 O   0  0  0  0  0  0  0  0  0  0  0  0
   26.1943    8.6923   16.7495 C   0  0  1  0  0  0  0  0  0  0  0  0
   27.3768    9.2546   13.1868 O   0  0  0  0  0  0  0  0  0  0  0  0
   27.5874    8.7528   17.3803 C   0  0  1  0  0  0  0  0  0  0  0  0
   26.2784   10.9814   12.0452 O   0  0  0  0  0  0  0  0  0  0  0  0
   28.4127    9.8828   16.7556 C   0  0  0  0  0  0  0  0  0  0  0  0
   28.7478   11.0146    9.2916 O   0  0  0  0  0  0  0  0  0  0  0  0
   28.5364    9.6447   15.2481 C   0  0  1  0  0  0  0  0  0  0  0  0
   27.6096    8.4355    9.0037 O   0  0  0  0  0  0  0  0  0  0  0  0
   27.1641    9.5768   14.5713 C   0  0  2  0  0  0  0  0  0  0  0  0
   26.2561    9.5734   12.3442 C   0  0  1  0  0  0  0  0  0  0  0  0
   27.4394   11.4059   11.3028 C   0  0  2  0  0  0  0  0  0  0  0  0
   27.3624   12.9037   10.9990 C   0  0  0  0  0  0  0  0  0  0  0  0
   27.5452   10.6496    9.9758 C   0  0  2  0  0  0  0  0  0  0  0  0
   27.5742    9.1440   10.2440 C   0  0  1  0  0  0  0  0  0  0  0  0
   26.3262    8.7625   11.0444 C   0  0  1  0  0  0  0  0  0  0  0  0
  5  4  1  6  0  0  0
  5  8  1  0  0  0  0
  5 16  1  0  0  0  0
  8  7  1  1  0  0  0
  8 10  1  0  0  0  0
 10  1  1  1  0  0  0
 10 12  1  0  0  0  0
 11 18  1  0  0  0  0
 12 14  1  0  0  0  0
 14  2  1  6  0  0  0
 14 16  1  0  0  0  0
 16  9  1  6  0  0  0
 17  9  1  1  0  0  0
 17 11  1  0  0  0  0
 17 22  1  0  0  0  0
 18 19  1  6  0  0  0
 18 20  1  0  0  0  0
 19  3  1  0  0  0  0
 20 13  1  1  0  0  0
 20 21  1  0  0  0  0
 21 15  1  6  0  0  0
 21 22  1  0  0  0  0
 22  6  1  1  0  0  0
M  END
>  <CHROM.1>
78.53614221,80.21112773,172.82019553,27.20967417,9.70427779,13.26439310,-1.78005294
-1.00530086,-1.46952405

>  <Name>
2fcx_lig

>  <RI>
1.55453e+07

>  <Rbt.Current_Directory>
/home/itssahil/PROJECTS/Mol_Feturizer/New_Systems/rnas/2fcx

>  <Rbt.Executable>
rbdock ($Id: //depot/dev/client3/rdock/2013.1/src/exe/rbdock.cxx#4 $)

>  <Rbt.Library>
libRbt.so (2013.1, Build901 2013/11/27)

>  <Rbt.Parameter_File>
/export/apps/rDock/src/rDock_2013.1_src/data/scripts/dock_solv.prm

>  <Rbt.Receptor>
prm/pocket_docking_4.prm

>  <SCORE>
-9.51966

>  <SCORE.INTER>
-9.69056

>  <SCORE.INTER.CONST>
1

>  <SCORE.INTER.POLAR>
-1.6839

>  <SCORE.INTER.ROT>
3

>  <SCORE.INTER.SOLV>
9.80185

>  <SCORE.INTER.VDW>
-9.71468

>  <SCORE.INTER.norm>
-0.44048

>  <SCORE.INTRA>
0.170909

>  <SCORE.INTRA.DIHEDRAL>
-1.28955

>  <SCORE.INTRA.DIHEDRAL.0>
4.88619

>  <SCORE.INTRA.POLAR>
0

>  <SCORE.INTRA.POLAR.0>
0

>  <SCORE.INTRA.REPUL>
0

>  <SCORE.INTRA.REPUL.0>
0

>  <SCORE.INTRA.SOLV>
1.10954

>  <SCORE.INTRA.SOLV.lig_0>
-73.8187

>  <SCORE.INTRA.VDW>
0.260913

>  <SCORE.INTRA.VDW.0>
-1.32335

>  <SCORE.INTRA.norm>
0.00776857

>  <SCORE.RESTR>
0

>  <SCORE.RESTR.CAVITY>
0

>  <SCORE.RESTR.norm>
0

>  <SCORE.SYSTEM>
0

>  <SCORE.SYSTEM.CONST>
0

>  <SCORE.SYSTEM.DIHEDRAL>
0

>  <SCORE.SYSTEM.SOLV>
0

>  <SCORE.SYSTEM.norm>
0

>  <SCORE.heavy>
22

>  <SCORE.norm>
-0.432712

>  <RMSD>
6.385

$$$$
2fcx_lig
 OpenBabel11021811433D
libRbt.so/2013.1/901 2013/11/27
 22 23  0  0  0  0  0  0  0  0999 V2000
   27.0515    5.5991   19.7920 N   0  0  0  0  0  0  0  0  0  0  0  0
   25.9442    8.9238   16.3576 N   0  0  0  0  0  0  0  0  0  0  0  0
   26.0593    8.3741   11.6333 N   0  0  0  0  0  0  0  0  0  0  0  0
   30.4667    7.1551   16.6719 O   0  0  0  0  0  0  0  0  0  0  0  0
   29.3243    7.5524   17.4352 C   0  0  2  0  0  0  0  0  0  0  0  0
   30.6680   11.3199   15.2482 N   0  0  0  0  0  0  0  0  0  0  0  0
   29.8457    6.0027   19.1915 O   0  0  0  0  0  0  0  0  0  0  0  0
   28.8159    6.3727   18.2672 C   0  0  1  0  0  0  0  0  0  0  0  0
   28.7066    9.3210   15.8790 O   0  0  0  0  0  0  0  0  0  0  0  0
   27.5510    6.7581   19.0377 C   0  0  1  0  0  0  0  0  0  0  0  0
   29.0709    8.2678   13.8175 O   0  0  0  0  0  0  0  0  0  0  0  0
   26.4599    7.2396   18.0755 C   0  0  0  0  0  0  0  0  0  0  0  0
   27.1547   10.8148   11.9407 O   0  0  0  0  0  0  0  0  0  0  0  0
   26.9763    8.4481   17.2896 C   0  0  1  0  0  0  0  0  0  0  0  0
   29.3199   12.3496   12.9338 O   0  0  0  0  0  0  0  0  0  0  0  0
   28.2443    8.1099   16.5000 C   0  0  2  0  0  0  0  0  0  0  0  0
   29.6659    9.0990   14.8310 C   0  0  1  0  0  0  0  0  0  0  0  0
   27.9317    8.8628   13.1641 C   0  0  2  0  0  0  0  0  0  0  0  0
   27.3873    7.9286   12.0812 C   0  0  0  0  0  0  0  0  0  0  0  0
   28.3121   10.1924   12.5070 C   0  0  2  0  0  0  0  0  0  0  0  0
   28.9067   11.1322   13.5572 C   0  0  1  0  0  0  0  0  0  0  0  0
   30.0989   10.4376   14.2206 C   0  0  1  0  0  0  0  0  0  0  0  0
  5  4  1  6  0  0  0
  5  8  1  0  0  0  0
  5 16  1  0  0  0  0
  8  7  1  1  0  0  0
  8 10  1  0  0  0  0
 10  1  1  6  0  0  0
 10 12  1  0  0  0  0
 11 18  1  0  0  0  0
 12 14  1  0  0  0  0
 14  2  1  6  0  0  0
 14 16  1  0  0  0  0
 16  9  1  1  0  0  0
 17  9  1  1  0  0  0
 17 11  1  0  0  0  0
 17 22  1  0  0  0  0
 18 19  1  6  0  0  0
 18 20  1  0  0  0  0
 19  3  1  0  0  0  0
 20 13  1  1  0  0  0
 20 21  1  0  0  0  0
 21 15  1  6  0  0  0
 21 22  1  0  0  0  0
 22  6  1  1  0  0  0
M  END
>  <CHROM.1>
75.29440849,59.04820927,166.72326281,28.38289903,8.65955837,15.45205248,1.58926368
0.48371537,2.12819003

>  <Name>
2fcx_lig

>  <RI>
1.15031e+07

>  <Rbt.Current_Directory>
/home/itssahil/PROJECTS/Mol_Feturizer/New_Systems/rnas/2fcx

>  <Rbt.Executable>
rbdock ($Id: //depot/dev/client3/rdock/2013.1/src/exe/rbdock.cxx#4 $)

>  <Rbt.Library>
libRbt.so (2013.1, Build901 2013/11/27)

>  <Rbt.Parameter_File>
/export/apps/rDock/src/rDock_2013.1_src/data/scripts/dock_solv.prm

>  <Rbt.Receptor>
prm/pocket_docking_8.prm

>  <SCORE>
-9.55628

>  <SCORE.INTER>
-8.45379

>  <SCORE.INTER.CONST>
1

>  <SCORE.INTER.POLAR>
-0.385908

>  <SCORE.INTER.ROT>
3

>  <SCORE.INTER.SOLV>
12.7496

>  <SCORE.INTER.VDW>
-14.1994

>  <SCORE.INTER.norm>
-0.384263

>  <SCORE.INTRA>
-1.10249

>  <SCORE.INTRA.DIHEDRAL>
-3.16144

>  <SCORE.INTRA.DIHEDRAL.0>
4.88619

>  <SCORE.INTRA.POLAR>
0

>  <SCORE.INTRA.POLAR.0>
0

>  <SCORE.INTRA.REPUL>
0

>  <SCORE.INTRA.REPUL.0>
0

>  <SCORE.INTRA.SOLV>
0.355943

>  <SCORE.INTRA.SOLV.lig_0>
-73.8187

>  <SCORE.INTRA.VDW>
0.300259

>  <SCORE.INTRA.VDW.0>
-1.32335

>  <SCORE.INTRA.norm>
-0.0501132

>  <SCORE.RESTR>
0

>  <SCORE.RESTR.CAVITY>
0

>  <SCORE.RESTR.norm>
0

>  <SCORE.SYSTEM>
0

>  <SCORE.SYSTEM.CONST>
0

>  <SCORE.SYSTEM.DIHEDRAL>
0

>  <SCORE.SYSTEM.SOLV>
0

>  <SCORE.SYSTEM.norm>
0

>  <SCORE.heavy>
22

>  <SCORE.norm>
-0.434376

>  <RMSD>
6.395

$$$$
2fcx_lig
 OpenBabel11021811433D
libRbt.so/2013.1/901 2013/11/27
 22 23  0  0  0  0  0  0  0  0999 V2000
   29.0522    8.3771   17.9847 N   0  0  0  0  0  0  0  0  0  0  0  0
   29.8892   11.2263   14.0788 N   0  0  0  0  0  0  0  0  0  0  0  0
   24.8382   13.2452   11.4731 N   0  0  0  0  0  0  0  0  0  0  0  0
   26.2387    8.0092   14.0138 O   0  0  0  0  0  0  0  0  0  0  0  0
   27.5743    8.2342   14.4732 C   0  0  2  0  0  0  0  0  0  0  0  0
   27.8040    8.2359   10.0265 N   0  0  0  0  0  0  0  0  0  0  0  0
   27.2626    6.7930   16.3664 O   0  0  0  0  0  0  0  0  0  0  0  0
   27.6266    8.1289   15.9992 C   0  0  1  0  0  0  0  0  0  0  0  0
   28.1793    9.5795   12.5354 O   0  0  0  0  0  0  0  0  0  0  0  0
   29.0341    8.4361   16.5157 C   0  0  1  0  0  0  0  0  0  0  0  0
   26.2615   10.8743   12.1649 O   0  0  0  0  0  0  0  0  0  0  0  0
   29.4815    9.8302   16.0633 C   0  0  0  0  0  0  0  0  0  0  0  0
   27.9638   13.0757    9.7282 O   0  0  0  0  0  0  0  0  0  0  0  0
   29.4655    9.8944   14.5334 C   0  0  1  0  0  0  0  0  0  0  0  0
   28.0369   10.5800    8.3879 O   0  0  0  0  0  0  0  0  0  0  0  0
   28.0740    9.5935   13.9688 C   0  0  2  0  0  0  0  0  0  0  0  0
   26.9076    9.6232   11.8656 C   0  0  1  0  0  0  0  0  0  0  0  0
   26.9762   12.0329   11.6897 C   0  0  2  0  0  0  0  0  0  0  0  0
   26.2023   13.3114   12.0184 C   0  0  0  0  0  0  0  0  0  0  0  0
   27.1763   11.9669   10.1732 C   0  0  2  0  0  0  0  0  0  0  0  0
   27.9053   10.6729    9.8076 C   0  0  1  0  0  0  0  0  0  0  0  0
   27.1046    9.4864   10.3509 C   0  0  1  0  0  0  0  0  0  0  0  0
  5  4  1  1  0  0  0
  5  8  1  0  0  0  0
  5 16  1  0  0  0  0
  8  7  1  6  0  0  0
  8 10  1  0  0  0  0
 10  1  1  1  0  0  0
 10 12  1  0  0  0  0
 11 18  1  0  0  0  0
 12 14  1  0  0  0  0
 14  2  1  1  0  0  0
 14 16  1  0  0  0  0
 16  9  1  6  0  0  0
 17  9  1  1  0  0  0
 17 11  1  0  0  0  0
 17 22  1  0  0  0  0
 18 19  1  6  0  0  0
 18 20  1  0  0  0  0
 19  3  1  0  0  0  0
 20 13  1  1  0  0  0
 20 21  1  0  0  0  0
 21 15  1  6  0  0  0
 21 22  1  0  0  0  0
 22  6  1  1  0  0  0
M  END
>  <CHROM.1>
73.45936257,64.05953990,-55.48118404,27.66723278,10.05386209,12.89084441
-0.32692135,-1.37802813,0.17366157

>  <Name>
2fcx_lig

>  <RI>
3.23342e+07

>  <Rbt.Current_Directory>
/home/itssahil/PROJECTS/Mol_Feturizer/New_Systems/rnas/2fcx

>  <Rbt.Executable>
rbdock ($Id: //depot/dev/client3/rdock/2013.1/src/exe/rbdock.cxx#4 $)

>  <Rbt.Library>
libRbt.so (2013.1, Build901 2013/11/27)

>  <Rbt.Parameter_File>
/export/apps/rDock/src/rDock_2013.1_src/data/scripts/dock_solv.prm

>  <Rbt.Receptor>
prm/pocket_docking_5.prm

>  <SCORE>
-12.4092

>  <SCORE.INTER>
-11.0306

>  <SCORE.INTER.CONST>
1

>  <SCORE.INTER.POLAR>
-1.76621

>  <SCORE.INTER.ROT>
3

>  <SCORE.INTER.SOLV>
8.06304

>  <SCORE.INTER.VDW>
-9.75403

>  <SCORE.INTER.norm>
-0.501389

>  <SCORE.INTRA>
-1.37863

>  <SCORE.INTRA.DIHEDRAL>
-3.86807

>  <SCORE.INTRA.DIHEDRAL.0>
4.88619

>  <SCORE.INTRA.POLAR>
0

>  <SCORE.INTRA.POLAR.0>
0

>  <SCORE.INTRA.REPUL>
0

>  <SCORE.INTRA.REPUL.0>
0

>  <SCORE.INTRA.SOLV>
0.655504

>  <SCORE.INTRA.SOLV.lig_0>
-73.8187

>  <SCORE.INTRA.VDW>
0.227652

>  <SCORE.INTRA.VDW.0>
-1.32335

>  <SCORE.INTRA.norm>
-0.062665

>  <SCORE.RESTR>
0

>  <SCORE.RESTR.CAVITY>
0

>  <SCORE.RESTR.norm>
0

>  <SCORE.SYSTEM>
0

>  <SCORE.SYSTEM.CONST>
0

>  <SCORE.SYSTEM.DIHEDRAL>
0

>  <SCORE.SYSTEM.SOLV>
0

>  <SCORE.SYSTEM.norm>
0

>  <SCORE.heavy>
22

>  <SCORE.norm>
-0.564054

>  <RMSD>
6.397

$$$$
2fcx_lig
 OpenBabel11021811433D
libRbt.so/2013.1/901 2013/11/27
 22 23  0  0  0  0  0  0  0  0999 V2000
   26.9383    5.6585   19.6429 N   0  0  0  0  0  0  0  0  0  0  0  0
   25.9263    8.9824   16.1785 N   0  0  0  0  0  0  0  0  0  0  0  0
   26.3405    8.4512   11.3553 N   0  0  0  0  0  0  0  0  0  0  0  0
   30.4437    7.2316   16.6337 O   0  0  0  0  0  0  0  0  0  0  0  0
   29.2763    7.6235   17.3609 C   0  0  2  0  0  0  0  0  0  0  0  0
   30.6768   11.4073   15.2667 N   0  0  0  0  0  0  0  0  0  0  0  0
   29.7484    6.0740   19.1313 O   0  0  0  0  0  0  0  0  0  0  0  0
   28.7466    6.4409   18.1753 C   0  0  1  0  0  0  0  0  0  0  0  0
   28.7008    9.3912   15.7876 O   0  0  0  0  0  0  0  0  0  0  0  0
   27.4565    6.8204   18.9059 C   0  0  1  0  0  0  0  0  0  0  0  0
   29.1919    8.3390   13.7521 O   0  0  0  0  0  0  0  0  0  0  0  0
   26.3944    7.2985   17.9102 C   0  0  0  0  0  0  0  0  0  0  0  0
   27.3632   10.8662   11.7645 O   0  0  0  0  0  0  0  0  0  0  0  0
   26.9304    8.5099   17.1421 C   0  0  1  0  0  0  0  0  0  0  0  0
   29.4540   12.4219   12.8772 O   0  0  0  0  0  0  0  0  0  0  0  0
   28.2240    8.1777   16.3926 C   0  0  2  0  0  0  0  0  0  0  0  0
   29.7204    9.1769   14.7966 C   0  0  1  0  0  0  0  0  0  0  0  0
   28.0866    8.9228   13.0336 C   0  0  2  0  0  0  0  0  0  0  0  0
   27.6135    7.9824   11.9229 C   0  0  0  0  0  0  0  0  0  0  0  0
   28.4919   10.2551   12.3971 C   0  0  2  0  0  0  0  0  0  0  0  0
   29.0169   11.2015   13.4780 C   0  0  1  0  0  0  0  0  0  0  0  0
   30.1755   10.5186   14.2097 C   0  0  1  0  0  0  0  0  0  0  0  0
  5  4  1  6  0  0  0
  5  8  1  0  0  0  0
  5 16  1  0  0  0  0
  8  7  1  1  0  0  0
  8 10  1  0  0  0  0
 10  1  1  6  0  0  0
 10 12  1  0  0  0  0
 11 18  1  0  0  0  0
 12 14  1  0  0  0  0
 14  2  1  6  0  0  0
 14 16  1  0  0  0  0
 16  9  1  1  0  0  0
 17  9  1  1  0  0  0
 17 11  1  0  0  0  0
 17 22  1  0  0  0  0
 18 19  1  6  0  0  0
 18 20  1  0  0  0  0
 19  3  1  0  0  0  0
 20 13  1  1  0  0  0
 20 21  1  0  0  0  0
 21 15  1  6  0  0  0
 21 22  1  0  0  0  0
 22  6  1  1  0  0  0
M  END
>  <CHROM.1>
73.65351485,59.62451796,169.41553934,28.42724554,8.72732380,15.34721884,1.63076328
0.51959042,2.10481876

>  <Name>
2fcx_lig

>  <RI>
1.15031e+07

>  <Rbt.Current_Directory>
/home/itssahil/PROJECTS/Mol_Feturizer/New_Systems/rnas/2fcx

>  <Rbt.Executable>
rbdock ($Id: //depot/dev/client3/rdock/2013.1/src/exe/rbdock.cxx#4 $)

>  <Rbt.Library>
libRbt.so (2013.1, Build901 2013/11/27)

>  <Rbt.Parameter_File>
/export/apps/rDock/src/rDock_2013.1_src/data/scripts/dock_solv.prm

>  <Rbt.Receptor>
prm/pocket_docking_8.prm

>  <SCORE>
-9.46864

>  <SCORE.INTER>
-8.30229

>  <SCORE.INTER.CONST>
1

>  <SCORE.INTER.POLAR>
-0.316972

>  <SCORE.INTER.ROT>
3

>  <SCORE.INTER.SOLV>
12.9398

>  <SCORE.INTER.VDW>
-14.3916

>  <SCORE.INTER.norm>
-0.377377

>  <SCORE.INTRA>
-1.16635

>  <SCORE.INTRA.DIHEDRAL>
-3.59582

>  <SCORE.INTRA.DIHEDRAL.0>
4.88619

>  <SCORE.INTRA.POLAR>
0

>  <SCORE.INTRA.POLAR.0>
0

>  <SCORE.INTRA.REPUL>
0

>  <SCORE.INTRA.REPUL.0>
0

>  <SCORE.INTRA.SOLV>
0.332383

>  <SCORE.INTRA.SOLV.lig_0>
-73.8187

>  <SCORE.INTRA.VDW>
0.465371

>  <SCORE.INTRA.VDW.0>
-1.32335

>  <SCORE.INTRA.norm>
-0.0530158

>  <SCORE.RESTR>
0

>  <SCORE.RESTR.CAVITY>
0

>  <SCORE.RESTR.norm>
0

>  <SCORE.SYSTEM>
0

>  <SCORE.SYSTEM.CONST>
0

>  <SCORE.SYSTEM.DIHEDRAL>
0

>  <SCORE.SYSTEM.SOLV>
0

>  <SCORE.SYSTEM.norm>
0

>  <SCORE.heavy>
22

>  <SCORE.norm>
-0.430393

>  <RMSD>
6.401

$$$$
2fcx_lig
 OpenBabel11021811433D
libRbt.so/2013.1/901 2013/11/27
 22 23  0  0  0  0  0  0  0  0999 V2000
   29.0927    8.2938   17.8545 N   0  0  0  0  0  0  0  0  0  0  0  0
   30.0635   11.1886   14.0137 N   0  0  0  0  0  0  0  0  0  0  0  0
   27.2811   14.6495   11.9180 N   0  0  0  0  0  0  0  0  0  0  0  0
   26.2515    8.1665   13.8884 O   0  0  0  0  0  0  0  0  0  0  0  0
   27.5984    8.3113   14.3471 C   0  0  2  0  0  0  0  0  0  0  0  0
   27.8443    8.4532    9.8734 N   0  0  0  0  0  0  0  0  0  0  0  0
   27.2186    6.8432   16.2069 O   0  0  0  0  0  0  0  0  0  0  0  0
   27.6499    8.1670   15.8699 C   0  0  1  0  0  0  0  0  0  0  0  0
   28.2659    9.6696   12.4391 O   0  0  0  0  0  0  0  0  0  0  0  0
   29.0730    8.3888   16.3875 C   0  0  1  0  0  0  0  0  0  0  0  0
   26.3891   11.0393   12.1334 O   0  0  0  0  0  0  0  0  0  0  0  0
   29.5904    9.7683   15.9662 C   0  0  0  0  0  0  0  0  0  0  0  0
   28.1557   13.2942    9.7932 O   0  0  0  0  0  0  0  0  0  0  0  0
   29.5729    9.8699   14.4385 C   0  0  1  0  0  0  0  0  0  0  0  0
   28.1480   10.8605    8.3415 O   0  0  0  0  0  0  0  0  0  0  0  0
   28.1660    9.6547   13.8730 C   0  0  2  0  0  0  0  0  0  0  0  0
   26.9951    9.7833   11.7760 C   0  0  1  0  0  0  0  0  0  0  0  0
   27.1392   12.1952   11.7088 C   0  0  2  0  0  0  0  0  0  0  0  0
   26.4063   13.4812   12.0973 C   0  0  0  0  0  0  0  0  0  0  0  0
   27.3345   12.1916   10.1902 C   0  0  2  0  0  0  0  0  0  0  0  0
   28.0218   10.8932    9.7644 C   0  0  1  0  0  0  0  0  0  0  0  0
   27.1851    9.7091   10.2560 C   0  0  1  0  0  0  0  0  0  0  0  0
  5  4  1  1  0  0  0
  5  8  1  0  0  0  0
  5 16  1  0  0  0  0
  8  7  1  6  0  0  0
  8 10  1  0  0  0  0
 10  1  1  1  0  0  0
 10 12  1  0  0  0  0
 11 18  1  0  0  0  0
 12 14  1  0  0  0  0
 14  2  1  1  0  0  0
 14 16  1  0  0  0  0
 16  9  1  6  0  0  0
 17  9  1  1  0  0  0
 17 11  1  0  0  0  0
 17 22  1  0  0  0  0
 18 19  1  6  0  0  0
 18 20  1  0  0  0  0
 19  3  1  0  0  0  0
 20 13  1  1  0  0  0
 20 21  1  0  0  0  0
 21 15  1  6  0  0  0
 21 22  1  0  0  0  0
 22  6  1  1  0  0  0
M  END
>  <CHROM.1>
72.95920435,62.63689989,168.46821707,27.86564626,10.22200246,12.84191730
-1.07048081,-1.31687437,-0.51467812

>  <Name>
2fcx_lig

>  <RI>
1.15031e+07

>  <Rbt.Current_Directory>
/home/itssahil/PROJECTS/Mol_Feturizer/New_Systems/rnas/2fcx

>  <Rbt.Executable>
rbdock ($Id: //depot/dev/client3/rdock/2013.1/src/exe/rbdock.cxx#4 $)

>  <Rbt.Library>
libRbt.so (2013.1, Build901 2013/11/27)

>  <Rbt.Parameter_File>
/export/apps/rDock/src/rDock_2013.1_src/data/scripts/dock_solv.prm

>  <Rbt.Receptor>
prm/pocket_docking_8.prm

>  <SCORE>
-12.1805

>  <SCORE.INTER>
-11.0081

>  <SCORE.INTER.CONST>
1

>  <SCORE.INTER.POLAR>
-1.76621

>  <SCORE.INTER.ROT>
3

>  <SCORE.INTER.SOLV>
8.96743

>  <SCORE.INTER.VDW>
-10.0405

>  <SCORE.INTER.norm>
-0.500369

>  <SCORE.INTRA>
-1.17238

>  <SCORE.INTRA.DIHEDRAL>
-3.57434

>  <SCORE.INTRA.DIHEDRAL.0>
4.88619

>  <SCORE.INTRA.POLAR>
0

>  <SCORE.INTRA.POLAR.0>
0

>  <SCORE.INTRA.REPUL>
0

>  <SCORE.INTRA.REPUL.0>
0

>  <SCORE.INTRA.SOLV>
0.303569

>  <SCORE.INTRA.SOLV.lig_0>
-73.8187

>  <SCORE.INTRA.VDW>
0.463003

>  <SCORE.INTRA.VDW.0>
-1.32335

>  <SCORE.INTRA.norm>
-0.0532902

>  <SCORE.RESTR>
0

>  <SCORE.RESTR.CAVITY>
0

>  <SCORE.RESTR.norm>
0

>  <SCORE.SYSTEM>
0

>  <SCORE.SYSTEM.CONST>
0

>  <SCORE.SYSTEM.DIHEDRAL>
0

>  <SCORE.SYSTEM.SOLV>
0

>  <SCORE.SYSTEM.norm>
0

>  <SCORE.heavy>
22

>  <SCORE.norm>
-0.55366

>  <RMSD>
6.401

$$$$
2fcx_lig
 OpenBabel11021811433D
libRbt.so/2013.1/901 2013/11/27
 22 23  0  0  0  0  0  0  0  0999 V2000
   29.0611    8.3914   17.8861 N   0  0  0  0  0  0  0  0  0  0  0  0
   29.9327   11.3404   14.0626 N   0  0  0  0  0  0  0  0  0  0  0  0
   27.0865   14.6711   11.9489 N   0  0  0  0  0  0  0  0  0  0  0  0
   26.2818    8.1282   13.8830 O   0  0  0  0  0  0  0  0  0  0  0  0
   27.6135    8.3404   14.3595 C   0  0  2  0  0  0  0  0  0  0  0  0
   27.8910    8.4981    9.8950 N   0  0  0  0  0  0  0  0  0  0  0  0
   27.2850    6.8508   16.2119 O   0  0  0  0  0  0  0  0  0  0  0  0
   27.6526    8.1956   15.8826 C   0  0  1  0  0  0  0  0  0  0  0  0
   28.2356    9.7352   12.4625 O   0  0  0  0  0  0  0  0  0  0  0  0
   29.0557    8.4885   16.4191 C   0  0  1  0  0  0  0  0  0  0  0  0
   26.3138   11.0344   12.1296 O   0  0  0  0  0  0  0  0  0  0  0  0
   29.5074    9.8936   16.0067 C   0  0  0  0  0  0  0  0  0  0  0  0
   28.0258   13.3471    9.8054 O   0  0  0  0  0  0  0  0  0  0  0  0
   29.5046    9.9974   14.4790 C   0  0  1  0  0  0  0  0  0  0  0  0
   28.1255   10.9115    8.3604 O   0  0  0  0  0  0  0  0  0  0  0  0
   28.1179    9.7120   13.8948 C   0  0  2  0  0  0  0  0  0  0  0  0
   26.9698    9.8006   11.7832 C   0  0  1  0  0  0  0  0  0  0  0  0
   27.0263   12.2160   11.7112 C   0  0  2  0  0  0  0  0  0  0  0  0
   26.2420   13.4751   12.0869 C   0  0  0  0  0  0  0  0  0  0  0  0
   27.2407   12.2160   10.1952 C   0  0  2  0  0  0  0  0  0  0  0  0
   27.9804   10.9427    9.7815 C   0  0  1  0  0  0  0  0  0  0  0  0
   27.1815    9.7299   10.2660 C   0  0  1  0  0  0  0  0  0  0  0  0
  5  4  1  1  0  0  0
  5  8  1  0  0  0  0
  5 16  1  0  0  0  0
  8  7  1  6  0  0  0
  8 10  1  0  0  0  0
 10  1  1  1  0  0  0
 10 12  1  0  0  0  0
 11 18  1  0  0  0  0
 12 14  1  0  0  0  0
 14  2  1  1  0  0  0
 14 16  1  0  0  0  0
 16  9  1  6  0  0  0
 17  9  1  1  0  0  0
 17 11  1  0  0  0  0
 17 22  1  0  0  0  0
 18 19  1  6  0  0  0
 18 20  1  0  0  0  0
 19  3  1  0  0  0  0
 20 13  1  1  0  0  0
 20 21  1  0  0  0  0
 21 15  1  6  0  0  0
 21 22  1  0  0  0  0
 22  6  1  1  0  0  0
M  END
>  <CHROM.1>
73.62444939,62.97852028,166.99328920,27.81566544,10.26848683,12.85862022
-0.94504429,-1.34419718,-0.39231642

>  <Name>
2fcx_lig

>  <RI>
3.23342e+07

>  <Rbt.Current_Directory>
/home/itssahil/PROJECTS/Mol_Feturizer/New_Systems/rnas/2fcx

>  <Rbt.Executable>
rbdock ($Id: //depot/dev/client3/rdock/2013.1/src/exe/rbdock.cxx#4 $)

>  <Rbt.Library>
libRbt.so (2013.1, Build901 2013/11/27)

>  <Rbt.Parameter_File>
/export/apps/rDock/src/rDock_2013.1_src/data/scripts/dock_solv.prm

>  <Rbt.Receptor>
prm/pocket_docking_5.prm

>  <SCORE>
-12.1468

>  <SCORE.INTER>
-10.9904

>  <SCORE.INTER.CONST>
1

>  <SCORE.INTER.POLAR>
-1.76621

>  <SCORE.INTER.ROT>
3

>  <SCORE.INTER.SOLV>
8.28908

>  <SCORE.INTER.VDW>
-9.80264

>  <SCORE.INTER.norm>
-0.499566

>  <SCORE.INTRA>
-1.15639

>  <SCORE.INTRA.DIHEDRAL>
-3.36209

>  <SCORE.INTRA.DIHEDRAL.0>
4.88619

>  <SCORE.INTRA.POLAR>
0

>  <SCORE.INTRA.POLAR.0>
0

>  <SCORE.INTRA.REPUL>
0

>  <SCORE.INTRA.REPUL.0>
0

>  <SCORE.INTRA.SOLV>
0.295249

>  <SCORE.INTRA.SOLV.lig_0>
-73.8187

>  <SCORE.INTRA.VDW>
0.377024

>  <SCORE.INTRA.VDW.0>
-1.32335

>  <SCORE.INTRA.norm>
-0.0525634

>  <SCORE.RESTR>
0

>  <SCORE.RESTR.CAVITY>
0

>  <SCORE.RESTR.norm>
0

>  <SCORE.SYSTEM>
0

>  <SCORE.SYSTEM.CONST>
0

>  <SCORE.SYSTEM.DIHEDRAL>
0

>  <SCORE.SYSTEM.SOLV>
0

>  <SCORE.SYSTEM.norm>
0

>  <SCORE.heavy>
22

>  <SCORE.norm>
-0.552129

>  <RMSD>
6.402

$$$$
2fcx_lig
 OpenBabel11021811433D
libRbt.so/2013.1/901 2013/11/27
 22 23  0  0  0  0  0  0  0  0999 V2000
   28.9595    8.5469   17.9609 N   0  0  0  0  0  0  0  0  0  0  0  0
   29.7641   11.4945   14.1218 N   0  0  0  0  0  0  0  0  0  0  0  0
   26.8951   14.6658   11.9226 N   0  0  0  0  0  0  0  0  0  0  0  0
   26.3173    8.0676   13.8856 O   0  0  0  0  0  0  0  0  0  0  0  0
   27.6197    8.3651   14.3962 C   0  0  2  0  0  0  0  0  0  0  0  0
   27.9850    8.5250    9.9214 N   0  0  0  0  0  0  0  0  0  0  0  0
   27.3270    6.8819   16.2597 O   0  0  0  0  0  0  0  0  0  0  0  0
   27.6234    8.2421   15.9218 C   0  0  1  0  0  0  0  0  0  0  0  0
   28.2122    9.7707   12.4977 O   0  0  0  0  0  0  0  0  0  0  0  0
   28.9906    8.6251   16.4931 C   0  0  1  0  0  0  0  0  0  0  0  0
   26.2558   11.0012   12.1103 O   0  0  0  0  0  0  0  0  0  0  0  0
   29.3697   10.0494   16.0736 C   0  0  0  0  0  0  0  0  0  0  0  0
   27.9500   13.3757    9.8359 O   0  0  0  0  0  0  0  0  0  0  0  0
   29.4048   10.1337   14.5451 C   0  0  1  0  0  0  0  0  0  0  0  0
   28.1772   10.9467    8.3942 O   0  0  0  0  0  0  0  0  0  0  0  0
   28.0549    9.7586   13.9264 C   0  0  2  0  0  0  0  0  0  0  0  0
   26.9648    9.7920   11.7827 C   0  0  1  0  0  0  0  0  0  0  0  0
   26.9375   12.2079   11.7124 C   0  0  2  0  0  0  0  0  0  0  0  0
   26.0986   13.4380   12.0657 C   0  0  0  0  0  0  0  0  0  0  0  0
   27.1948   12.2171   10.2031 C   0  0  2  0  0  0  0  0  0  0  0  0
   27.9907   10.9713    9.8106 C   0  0  1  0  0  0  0  0  0  0  0  0
   27.2219    9.7304   10.2721 C   0  0  1  0  0  0  0  0  0  0  0  0
  5  4  1  1  0  0  0
  5  8  1  0  0  0  0
  5 16  1  0  0  0  0
  8  7  1  6  0  0  0
  8 10  1  0  0  0  0
 10  1  1  1  0  0  0
 10 12  1  0  0  0  0
 11 18  1  0  0  0  0
 12 14  1  0  0  0  0
 14  2  1  1  0  0  0
 14 16  1  0  0  0  0
 16  9  1  6  0  0  0
 17  9  1  1  0  0  0
 17 11  1  0  0  0  0
 17 22  1  0  0  0  0
 18 19  1  6  0  0  0
 18 20  1  0  0  0  0
 19  3  1  0  0  0  0
 20 13  1  1  0  0  0
 20 21  1  0  0  0  0
 21 15  1  6  0  0  0
 21 22  1  0  0  0  0
 22  6  1  1  0  0  0
M  END
>  <CHROM.1>
75.36818344,62.25492331,168.26664696,27.77064605,10.30765180,12.88571002
-0.80151222,-1.38308627,-0.25879976

>  <Name>
2fcx_lig

>  <RI>
3.23342e+07

>  <Rbt.Current_Directory>
/home/itssahil/PROJECTS/Mol_Feturizer/New_Systems/rnas/2fcx

>  <Rbt.Executable>
rbdock ($Id: //depot/dev/client3/rdock/2013.1/src/exe/rbdock.cxx#4 $)

>  <Rbt.Library>
libRbt.so (2013.1, Build901 2013/11/27)

>  <Rbt.Parameter_File>
/export/apps/rDock/src/rDock_2013.1_src/data/scripts/dock_solv.prm

>  <Rbt.Receptor>
prm/pocket_docking_5.prm

>  <SCORE>
-12.0977

>  <SCORE.INTER>
-10.9697

>  <SCORE.INTER.CONST>
1

>  <SCORE.INTER.POLAR>
-1.76621

>  <SCORE.INTER.ROT>
3

>  <SCORE.INTER.SOLV>
7.84547

>  <SCORE.INTER.VDW>
-9.64095

>  <SCORE.INTER.norm>
-0.498624

>  <SCORE.INTRA>
-1.12792

>  <SCORE.INTRA.DIHEDRAL>
-3.26107

>  <SCORE.INTRA.DIHEDRAL.0>
4.88619

>  <SCORE.INTRA.POLAR>
0

>  <SCORE.INTRA.POLAR.0>
0

>  <SCORE.INTRA.REPUL>
0

>  <SCORE.INTRA.REPUL.0>
0

>  <SCORE.INTRA.SOLV>
0.415378

>  <SCORE.INTRA.SOLV.lig_0>
-73.8187

>  <SCORE.INTRA.VDW>
0.294927

>  <SCORE.INTRA.VDW.0>
-1.32335

>  <SCORE.INTRA.norm>
-0.0512691

>  <SCORE.RESTR>
0

>  <SCORE.RESTR.CAVITY>
0

>  <SCORE.RESTR.norm>
0

>  <SCORE.SYSTEM>
0

>  <SCORE.SYSTEM.CONST>
0

>  <SCORE.SYSTEM.DIHEDRAL>
0

>  <SCORE.SYSTEM.SOLV>
0

>  <SCORE.SYSTEM.norm>
0

>  <SCORE.heavy>
22

>  <SCORE.norm>
-0.549893

>  <RMSD>
6.406

$$$$
2fcx_lig
 OpenBabel11021811433D
libRbt.so/2013.1/901 2013/11/27
 22 23  0  0  0  0  0  0  0  0999 V2000
   28.9671    8.3745   17.9299 N   0  0  0  0  0  0  0  0  0  0  0  0
   29.9408   11.1598   14.0096 N   0  0  0  0  0  0  0  0  0  0  0  0
   24.8806   13.2437   11.4331 N   0  0  0  0  0  0  0  0  0  0  0  0
   26.1982    8.0509   13.9240 O   0  0  0  0  0  0  0  0  0  0  0  0
   27.5335    8.2410   14.3997 C   0  0  2  0  0  0  0  0  0  0  0  0
   27.8670    8.2694    9.9106 N   0  0  0  0  0  0  0  0  0  0  0  0
   27.1536    6.8281   16.3017 O   0  0  0  0  0  0  0  0  0  0  0  0
   27.5619    8.1491   15.9272 C   0  0  1  0  0  0  0  0  0  0  0  0
   28.2041    9.5491   12.4580 O   0  0  0  0  0  0  0  0  0  0  0  0
   28.9707    8.4198   16.4603 C   0  0  1  0  0  0  0  0  0  0  0  0
   26.2917   10.8530   12.0916 O   0  0  0  0  0  0  0  0  0  0  0  0
   29.4651    9.7956   16.0011 C   0  0  0  0  0  0  0  0  0  0  0  0
   28.0298   13.1152    9.7372 O   0  0  0  0  0  0  0  0  0  0  0  0
   29.4718    9.8454   14.4707 C   0  0  1  0  0  0  0  0  0  0  0  0
   28.1238   10.6542    8.3355 O   0  0  0  0  0  0  0  0  0  0  0  0
   28.0798    9.5801   13.8897 C   0  0  2  0  0  0  0  0  0  0  0  0
   26.9426    9.6098   11.7705 C   0  0  1  0  0  0  0  0  0  0  0  0
   27.0133   12.0232   11.6567 C   0  0  2  0  0  0  0  0  0  0  0  0
   26.2341   13.2931   12.0060 C   0  0  0  0  0  0  0  0  0  0  0  0
   27.2361   11.9955   10.1422 C   0  0  2  0  0  0  0  0  0  0  0  0
   27.9709   10.7111    9.7550 C   0  0  1  0  0  0  0  0  0  0  0  0
   27.1624    9.5114   10.2560 C   0  0  1  0  0  0  0  0  0  0  0  0
  5  4  1  1  0  0  0
  5  8  1  0  0  0  0
  5 16  1  0  0  0  0
  8  7  1  6  0  0  0
  8 10  1  0  0  0  0
 10  1  1  1  0  0  0
 10 12  1  0  0  0  0
 11 18  1  0  0  0  0
 12 14  1  0  0  0  0
 14  2  1  1  0  0  0
 14 16  1  0  0  0  0
 16  9  1  6  0  0  0
 17  9  1  1  0  0  0
 17 11  1  0  0  0  0
 17 22  1  0  0  0  0
 18 19  1  6  0  0  0
 18 20  1  0  0  0  0
 19  3  1  0  0  0  0
 20 13  1  1  0  0  0
 20 21  1  0  0  0  0
 21 15  1  6  0  0  0
 21 22  1  0  0  0  0
 22  6  1  1  0  0  0
M  END
>  <CHROM.1>
72.85867864,61.74152534,-55.76148871,27.67833731,10.05764979,12.82962868
-0.26387781,-1.40080063,0.23999847

>  <Name>
2fcx_lig

>  <RI>
0

>  <Rbt.Current_Directory>
/home/itssahil/PROJECTS/Mol_Feturizer/New_Systems/rnas/2fcx

>  <Rbt.Executable>
rbdock ($Id: //depot/dev/client3/rdock/2013.1/src/exe/rbdock.cxx#4 $)

>  <Rbt.Library>
libRbt.so (2013.1, Build901 2013/11/27)

>  <Rbt.Parameter_File>
/export/apps/rDock/src/rDock_2013.1_src/data/scripts/dock_solv.prm

>  <Rbt.Receptor>
prm/pocket_docking_6.prm

>  <SCORE>
-12.3647

>  <SCORE.INTER>
-10.9513

>  <SCORE.INTER.CONST>
1

>  <SCORE.INTER.POLAR>
-1.76621

>  <SCORE.INTER.ROT>
3

>  <SCORE.INTER.SOLV>
8.59474

>  <SCORE.INTER.VDW>
-9.87842

>  <SCORE.INTER.norm>
-0.497786

>  <SCORE.INTRA>
-1.41337

>  <SCORE.INTRA.DIHEDRAL>
-4.01471

>  <SCORE.INTRA.DIHEDRAL.0>
4.88619

>  <SCORE.INTRA.POLAR>
0

>  <SCORE.INTRA.POLAR.0>
0

>  <SCORE.INTRA.REPUL>
0

>  <SCORE.INTRA.REPUL.0>
0

>  <SCORE.INTRA.SOLV>
0.60077

>  <SCORE.INTRA.SOLV.lig_0>
-73.8187

>  <SCORE.INTRA.VDW>
0.293603

>  <SCORE.INTRA.VDW.0>
-1.32335

>  <SCORE.INTRA.norm>
-0.0642439

>  <SCORE.RESTR>
0

>  <SCORE.RESTR.CAVITY>
0

>  <SCORE.RESTR.norm>
0

>  <SCORE.SYSTEM>
0

>  <SCORE.SYSTEM.CONST>
0

>  <SCORE.SYSTEM.DIHEDRAL>
0

>  <SCORE.SYSTEM.SOLV>
0

>  <SCORE.SYSTEM.norm>
0

>  <SCORE.heavy>
22

>  <SCORE.norm>
-0.56203

>  <RMSD>
6.419

$$$$
2fcx_lig
 OpenBabel11021811433D
libRbt.so/2013.1/901 2013/11/27
 22 23  0  0  0  0  0  0  0  0999 V2000
   29.1127    8.3185   17.8497 N   0  0  0  0  0  0  0  0  0  0  0  0
   30.0214   11.1500   13.9470 N   0  0  0  0  0  0  0  0  0  0  0  0
   24.9783   13.3793   11.4021 N   0  0  0  0  0  0  0  0  0  0  0  0
   26.2340    8.0947   13.9150 O   0  0  0  0  0  0  0  0  0  0  0  0
   27.5841    8.2590   14.3576 C   0  0  2  0  0  0  0  0  0  0  0  0
   27.7841    8.2985    9.8911 N   0  0  0  0  0  0  0  0  0  0  0  0
   27.2349    6.8224   16.2477 O   0  0  0  0  0  0  0  0  0  0  0  0
   27.6517    8.1433   15.8822 C   0  0  1  0  0  0  0  0  0  0  0  0
   28.2214    9.5875   12.4185 O   0  0  0  0  0  0  0  0  0  0  0  0
   29.0779    8.3863   16.3815 C   0  0  1  0  0  0  0  0  0  0  0  0
   26.3294   10.9321   12.0959 O   0  0  0  0  0  0  0  0  0  0  0  0
   29.5795    9.7621   15.9299 C   0  0  0  0  0  0  0  0  0  0  0  0
   28.0514   13.1381    9.6773 O   0  0  0  0  0  0  0  0  0  0  0  0
   29.5462    9.8353   14.4007 C   0  0  1  0  0  0  0  0  0  0  0  0
   28.0504   10.6662    8.2917 O   0  0  0  0  0  0  0  0  0  0  0  0
   28.1356    9.5981   13.8533 C   0  0  2  0  0  0  0  0  0  0  0  0
   26.9428    9.6722   11.7660 C   0  0  1  0  0  0  0  0  0  0  0  0
   27.0647   12.0825   11.6324 C   0  0  2  0  0  0  0  0  0  0  0  0
   26.3244   13.3721   11.9939 C   0  0  0  0  0  0  0  0  0  0  0  0
   27.2443   12.0396   10.1125 C   0  0  2  0  0  0  0  0  0  0  0  0
   27.9387   10.7361    9.7145 C   0  0  1  0  0  0  0  0  0  0  0  0
   27.1177    9.5586   10.2467 C   0  0  1  0  0  0  0  0  0  0  0  0
  5  4  1  1  0  0  0
  5  8  1  0  0  0  0
  5 16  1  0  0  0  0
  8  7  1  6  0  0  0
  8 10  1  0  0  0  0
 10  1  1  1  0  0  0
 10 12  1  0  0  0  0
 11 18  1  0  0  0  0
 12 14  1  0  0  0  0
 14  2  1  1  0  0  0
 14 16  1  0  0  0  0
 16  9  1  6  0  0  0
 17  9  1  1  0  0  0
 17 11  1  0  0  0  0
 17 22  1  0  0  0  0
 18 19  1  6  0  0  0
 18 20  1  0  0  0  0
 19  3  1  0  0  0  0
 20 13  1  1  0  0  0
 20 21  1  0  0  0  0
 21 15  1  6  0  0  0
 21 22  1  0  0  0  0
 22  6  1  1  0  0  0
M  END
>  <CHROM.1>
72.68832522,63.17204745,-58.61734618,27.71980054,10.08342658,12.79075463
-0.45979606,-1.37077378,0.05359358

>  <Name>
2fcx_lig

>  <RI>
0

>  <Rbt.Current_Directory>
/home/itssahil/PROJECTS/Mol_Feturizer/New_Systems/rnas/2fcx

>  <Rbt.Executable>
rbdock ($Id: //depot/dev/client3/rdock/2013.1/src/exe/rbdock.cxx#4 $)

>  <Rbt.Library>
libRbt.so (2013.1, Build901 2013/11/27)

>  <Rbt.Parameter_File>
/export/apps/rDock/src/rDock_2013.1_src/data/scripts/dock_solv.prm

>  <Rbt.Receptor>
prm/pocket_docking_6.prm

>  <SCORE>
-12.3628

>  <SCORE.INTER>
-10.9669

>  <SCORE.INTER.CONST>
1

>  <SCORE.INTER.POLAR>
-1.76621

>  <SCORE.INTER.ROT>
3

>  <SCORE.INTER.SOLV>
8.70909

>  <SCORE.INTER.VDW>
-9.92692

>  <SCORE.INTER.norm>
-0.498494

>  <SCORE.INTRA>
-1.39597

>  <SCORE.INTRA.DIHEDRAL>
-4.05619

>  <SCORE.INTRA.DIHEDRAL.0>
4.88619

>  <SCORE.INTRA.POLAR>
0

>  <SCORE.INTRA.POLAR.0>
0

>  <SCORE.INTRA.REPUL>
0

>  <SCORE.INTRA.REPUL.0>
0

>  <SCORE.INTRA.SOLV>
0.650701

>  <SCORE.INTRA.SOLV.lig_0>
-73.8187

>  <SCORE.INTRA.VDW>
0.306776

>  <SCORE.INTRA.VDW.0>
-1.32335

>  <SCORE.INTRA.norm>
-0.0634532

>  <SCORE.RESTR>
0

>  <SCORE.RESTR.CAVITY>
0

>  <SCORE.RESTR.norm>
0

>  <SCORE.SYSTEM>
0

>  <SCORE.SYSTEM.CONST>
0

>  <SCORE.SYSTEM.DIHEDRAL>
0

>  <SCORE.SYSTEM.SOLV>
0

>  <SCORE.SYSTEM.norm>
0

>  <SCORE.heavy>
22

>  <SCORE.norm>
-0.561948

>  <RMSD>
6.426

$$$$
2fcx_lig
 OpenBabel11021811433D
libRbt.so/2013.1/901 2013/11/27
 22 23  0  0  0  0  0  0  0  0999 V2000
   23.3751    8.6112    8.1599 N   0  0  0  0  0  0  0  0  0  0  0  0
   24.8873   11.3623   11.9307 N   0  0  0  0  0  0  0  0  0  0  0  0
   28.4647   13.4707   10.3527 N   0  0  0  0  0  0  0  0  0  0  0  0
   27.8504    8.0126   10.0124 O   0  0  0  0  0  0  0  0  0  0  0  0
   26.4882    8.3012   10.3388 C   0  0  2  0  0  0  0  0  0  0  0  0
   28.6329    8.2301   14.2910 N   0  0  0  0  0  0  0  0  0  0  0  0
   25.6729    6.9111    8.5608 O   0  0  0  0  0  0  0  0  0  0  0  0
   25.6256    8.2470    9.0757 C   0  0  1  0  0  0  0  0  0  0  0  0
   27.0749    9.6050   12.3103 O   0  0  0  0  0  0  0  0  0  0  0  0
   24.1762    8.6223    9.3927 C   0  0  1  0  0  0  0  0  0  0  0  0
   28.9832   10.7285   11.5435 O   0  0  0  0  0  0  0  0  0  0  0  0
   24.1067   10.0166   10.0246 C   0  0  0  0  0  0  0  0  0  0  0  0
   29.0155   13.0652   14.4107 O   0  0  0  0  0  0  0  0  0  0  0  0
   24.9386   10.0310   11.3100 C   0  0  1  0  0  0  0  0  0  0  0  0
   29.4861   10.5831   15.6945 O   0  0  0  0  0  0  0  0  0  0  0  0
   26.4005    9.6611   11.0422 C   0  0  2  0  0  0  0  0  0  0  0  0
   28.5068    9.5375   12.1969 C   0  0  1  0  0  0  0  0  0  0  0  0
   28.7210   11.9438   12.2738 C   0  0  2  0  0  0  0  0  0  0  0  0
   29.2913   13.1511   11.5262 C   0  0  0  0  0  0  0  0  0  0  0  0
   29.3585   11.8931   13.6649 C   0  0  2  0  0  0  0  0  0  0  0  0
   28.8447   10.6664   14.4204 C   0  0  1  0  0  0  0  0  0  0  0  0
   29.1407    9.4160   13.5881 C   0  0  1  0  0  0  0  0  0  0  0  0
  5  4  1  6  0  0  0
  5  8  1  0  0  0  0
  5 16  1  0  0  0  0
  8  7  1  1  0  0  0
  8 10  1  0  0  0  0
 10  1  1  6  0  0  0
 10 12  1  0  0  0  0
 11 18  1  0  0  0  0
 12 14  1  0  0  0  0
 14  2  1  6  0  0  0
 14 16  1  0  0  0  0
 16  9  1  1  0  0  0
 17  9  1  1  0  0  0
 17 11  1  0  0  0  0
 17 22  1  0  0  0  0
 18 19  1  6  0  0  0
 18 20  1  0  0  0  0
 19  3  1  0  0  0  0
 20 13  1  1  0  0  0
 20 21  1  0  0  0  0
 21 15  1  1  0  0  0
 21 22  1  0  0  0  0
 22  6  1  1  0  0  0
M  END
>  <CHROM.1>
71.59848736,61.92026569,73.99051486,27.25963768,10.09183694,11.65614430,2.78864749
0.84899255,3.01060026

>  <Name>
2fcx_lig

>  <RI>
4.08374e+07

>  <Rbt.Current_Directory>
/home/itssahil/PROJECTS/Mol_Feturizer/New_Systems/rnas/2fcx

>  <Rbt.Executable>
rbdock ($Id: //depot/dev/client3/rdock/2013.1/src/exe/rbdock.cxx#4 $)

>  <Rbt.Library>
libRbt.so (2013.1, Build901 2013/11/27)

>  <Rbt.Parameter_File>
/export/apps/rDock/src/rDock_2013.1_src/data/scripts/dock_solv.prm

>  <Rbt.Receptor>
prm/pocket_docking_7.prm

>  <SCORE>
-10.3963

>  <SCORE.INTER>
-8.47461

>  <SCORE.INTER.CONST>
1

>  <SCORE.INTER.POLAR>
-2.39964

>  <SCORE.INTER.ROT>
3

>  <SCORE.INTER.SOLV>
8.14754

>  <SCORE.INTER.VDW>
-5.9668

>  <SCORE.INTER.norm>
-0.38521

>  <SCORE.INTRA>
-1.9217

>  <SCORE.INTRA.DIHEDRAL>
-3.54712

>  <SCORE.INTRA.DIHEDRAL.0>
4.88619

>  <SCORE.INTRA.POLAR>
0

>  <SCORE.INTRA.POLAR.0>
0

>  <SCORE.INTRA.REPUL>
0

>  <SCORE.INTRA.REPUL.0>
0

>  <SCORE.INTRA.SOLV>
-0.798848

>  <SCORE.INTRA.SOLV.lig_0>
-73.8187

>  <SCORE.INTRA.VDW>
0.251284

>  <SCORE.INTRA.VDW.0>
-1.32335

>  <SCORE.INTRA.norm>
-0.08735

>  <SCORE.RESTR>
0

>  <SCORE.RESTR.CAVITY>
0

>  <SCORE.RESTR.norm>
0

>  <SCORE.SYSTEM>
0

>  <SCORE.SYSTEM.CONST>
0

>  <SCORE.SYSTEM.DIHEDRAL>
0

>  <SCORE.SYSTEM.SOLV>
0

>  <SCORE.SYSTEM.norm>
0

>  <SCORE.heavy>
22

>  <SCORE.norm>
-0.47256

>  <RMSD>
6.438

$$$$
2fcx_lig
 OpenBabel11021811433D
libRbt.so/2013.1/901 2013/11/27
 22 23  0  0  0  0  0  0  0  0999 V2000
   28.7346    9.9142   16.4006 N   0  0  0  0  0  0  0  0  0  0  0  0
   25.3795    9.8370   12.8212 N   0  0  0  0  0  0  0  0  0  0  0  0
   28.3412    6.3010   10.1431 N   0  0  0  0  0  0  0  0  0  0  0  0
   30.1114   10.1260   11.7232 O   0  0  0  0  0  0  0  0  0  0  0  0
   29.1136   10.5424   12.6594 C   0  0  2  0  0  0  0  0  0  0  0  0
   27.5796   12.4693    8.7544 N   0  0  0  0  0  0  0  0  0  0  0  0
   30.7136   10.6768   14.4427 O   0  0  0  0  0  0  0  0  0  0  0  0
   29.4795   10.0560   14.0637 C   0  0  1  0  0  0  0  0  0  0  0  0
   27.3603   10.6612   10.9733 O   0  0  0  0  0  0  0  0  0  0  0  0
   28.3880   10.4314   15.0687 C   0  0  1  0  0  0  0  0  0  0  0  0
   28.3753    8.9569    9.7255 O   0  0  0  0  0  0  0  0  0  0  0  0
   27.0372    9.8488   14.6393 C   0  0  0  0  0  0  0  0  0  0  0  0
   25.3185    8.2959    7.7505 O   0  0  0  0  0  0  0  0  0  0  0  0
   26.6723   10.3870   13.2530 C   0  0  1  0  0  0  0  0  0  0  0  0
   25.9491   10.9413    6.9542 O   0  0  0  0  0  0  0  0  0  0  0  0
   27.7378   10.0348   12.2107 C   0  0  2  0  0  0  0  0  0  0  0  0
   28.2636   10.3827    9.8896 C   0  0  1  0  0  0  0  0  0  0  0  0
   27.1399    8.3091    9.3607 C   0  0  2  0  0  0  0  0  0  0  0  0
   27.3586    6.8063    9.1727 C   0  0  0  0  0  0  0  0  0  0  0  0
   26.5877    8.8832    8.0531 C   0  0  2  0  0  0  0  0  0  0  0  0
   26.4046   10.3953    8.1935 C   0  0  1  0  0  0  0  0  0  0  0  0
   27.7445   11.0184    8.5941 C   0  0  1  0  0  0  0  0  0  0  0  0
  5  4  1  6  0  0  0
  5  8  1  0  0  0  0
  5 16  1  0  0  0  0
  8  7  1  1  0  0  0
  8 10  1  0  0  0  0
 10  1  1  1  0  0  0
 10 12  1  0  0  0  0
 11 18  1  0  0  0  0
 12 14  1  0  0  0  0
 14  2  1  6  0  0  0
 14 16  1  0  0  0  0
 16  9  1  6  0  0  0
 17  9  1  1  0  0  0
 17 11  1  0  0  0  0
 17 22  1  0  0  0  0
 18 19  1  6  0  0  0
 18 20  1  0  0  0  0
 19  3  1  0  0  0  0
 20 13  1  1  0  0  0
 20 21  1  0  0  0  0
 21 15  1  6  0  0  0
 21 22  1  0  0  0  0
 22  6  1  1  0  0  0
M  END
>  <CHROM.1>
61.10725389,56.02374434,36.13870425,27.72632764,9.78289354,11.09589340,0.17661918
1.24167864,2.83435027

>  <Name>
2fcx_lig

>  <RI>
4.08374e+07

>  <Rbt.Current_Directory>
/home/itssahil/PROJECTS/Mol_Feturizer/New_Systems/rnas/2fcx

>  <Rbt.Executable>
rbdock ($Id: //depot/dev/client3/rdock/2013.1/src/exe/rbdock.cxx#4 $)

>  <Rbt.Library>
libRbt.so (2013.1, Build901 2013/11/27)

>  <Rbt.Parameter_File>
/export/apps/rDock/src/rDock_2013.1_src/data/scripts/dock_solv.prm

>  <Rbt.Receptor>
prm/pocket_docking_7.prm

>  <SCORE>
-12.2694

>  <SCORE.INTER>
-11.8698

>  <SCORE.INTER.CONST>
1

>  <SCORE.INTER.POLAR>
-2.58396

>  <SCORE.INTER.ROT>
3

>  <SCORE.INTER.SOLV>
13.5376

>  <SCORE.INTER.VDW>
-9.41254

>  <SCORE.INTER.norm>
-0.539537

>  <SCORE.INTRA>
-0.399614

>  <SCORE.INTRA.DIHEDRAL>
-2.98245

>  <SCORE.INTRA.DIHEDRAL.0>
4.88619

>  <SCORE.INTRA.POLAR>
0

>  <SCORE.INTRA.POLAR.0>
0

>  <SCORE.INTRA.REPUL>
0

>  <SCORE.INTRA.REPUL.0>
0

>  <SCORE.INTRA.SOLV>
-0.707638

>  <SCORE.INTRA.SOLV.lig_0>
-73.8187

>  <SCORE.INTRA.VDW>
1.44543

>  <SCORE.INTRA.VDW.0>
-1.32335

>  <SCORE.INTRA.norm>
-0.0181643

>  <SCORE.RESTR>
0

>  <SCORE.RESTR.CAVITY>
0

>  <SCORE.RESTR.norm>
0

>  <SCORE.SYSTEM>
0

>  <SCORE.SYSTEM.CONST>
0

>  <SCORE.SYSTEM.DIHEDRAL>
0

>  <SCORE.SYSTEM.SOLV>
0

>  <SCORE.SYSTEM.norm>
0

>  <SCORE.heavy>
22

>  <SCORE.norm>
-0.557702

>  <RMSD>
6.453

$$$$
2fcx_lig
 OpenBabel11021811433D
libRbt.so/2013.1/901 2013/11/27
 22 23  0  0  0  0  0  0  0  0999 V2000
   28.2826    7.9950   14.4919 N   0  0  0  0  0  0  0  0  0  0  0  0
   30.6641   12.0526   13.0995 N   0  0  0  0  0  0  0  0  0  0  0  0
   28.9597   12.6898   19.9863 N   0  0  0  0  0  0  0  0  0  0  0  0
   30.2013   10.9971   17.8273 O   0  0  0  0  0  0  0  0  0  0  0  0
   29.5420   10.9403   16.5594 C   0  0  2  0  0  0  0  0  0  0  0  0
   29.9783   15.2918   14.1286 N   0  0  0  0  0  0  0  0  0  0  0  0
   28.2851    8.9985   17.1982 O   0  0  0  0  0  0  0  0  0  0  0  0
   29.2014    9.4891   16.2124 C   0  0  1  0  0  0  0  0  0  0  0  0
   30.5592   13.0052   15.7640 O   0  0  0  0  0  0  0  0  0  0  0  0
   28.5580    9.3999   14.8266 C   0  0  1  0  0  0  0  0  0  0  0  0
   28.8471   13.5946   17.2516 O   0  0  0  0  0  0  0  0  0  0  0  0
   29.4853    9.9974   13.7629 C   0  0  0  0  0  0  0  0  0  0  0  0
   30.8360   16.3044   18.7952 O   0  0  0  0  0  0  0  0  0  0  0  0
   29.7727   11.4614   14.1075 C   0  0  1  0  0  0  0  0  0  0  0  0
   30.5387   17.2571   16.1429 O   0  0  0  0  0  0  0  0  0  0  0  0
   30.4190   11.6013   15.4889 C   0  0  2  0  0  0  0  0  0  0  0  0
   29.3033   13.6941   15.8898 C   0  0  1  0  0  0  0  0  0  0  0  0
   29.7194   14.2254   18.2108 C   0  0  2  0  0  0  0  0  0  0  0  0
   29.1409   14.1030   19.6222 C   0  0  0  0  0  0  0  0  0  0  0  0
   29.8988   15.7119   17.8906 C   0  0  2  0  0  0  0  0  0  0  0  0
   30.4304   15.8692   16.4650 C   0  0  1  0  0  0  0  0  0  0  0  0
   29.4694   15.1682   15.5012 C   0  0  1  0  0  0  0  0  0  0  0  0
  5  4  1  1  0  0  0
  5  8  1  0  0  0  0
  5 16  1  0  0  0  0
  8  7  1  1  0  0  0
  8 10  1  0  0  0  0
 10  1  1  6  0  0  0
 10 12  1  0  0  0  0
 11 18  1  0  0  0  0
 12 14  1  0  0  0  0
 14  2  1  6  0  0  0
 14 16  1  0  0  0  0
 16  9  1  1  0  0  0
 17  9  1  1  0  0  0
 17 11  1  0  0  0  0
 17 22  1  0  0  0  0
 18 19  1  1  0  0  0
 18 20  1  0  0  0  0
 19  3  1  0  0  0  0
 20 13  1  1  0  0  0
 20 21  1  0  0  0  0
 21 15  1  6  0  0  0
 21 22  1  0  0  0  0
 22  6  1  6  0  0  0
M  END
>  <CHROM.1>
-55.22414610,86.83570710,58.86908228,29.64998393,12.74374482,16.36730396
-2.23657836,1.31576931,0.99709013

>  <Name>
2fcx_lig

>  <RI>
1.15031e+07

>  <Rbt.Current_Directory>
/home/itssahil/PROJECTS/Mol_Feturizer/New_Systems/rnas/2fcx

>  <Rbt.Executable>
rbdock ($Id: //depot/dev/client3/rdock/2013.1/src/exe/rbdock.cxx#4 $)

>  <Rbt.Library>
libRbt.so (2013.1, Build901 2013/11/27)

>  <Rbt.Parameter_File>
/export/apps/rDock/src/rDock_2013.1_src/data/scripts/dock_solv.prm

>  <Rbt.Receptor>
prm/pocket_docking_8.prm

>  <SCORE>
-13.6716

>  <SCORE.INTER>
-14.703

>  <SCORE.INTER.CONST>
1

>  <SCORE.INTER.POLAR>
-0.916515

>  <SCORE.INTER.ROT>
3

>  <SCORE.INTER.SOLV>
12.8904

>  <SCORE.INTER.VDW>
-16.6437

>  <SCORE.INTER.norm>
-0.668319

>  <SCORE.INTRA>
1.03136

>  <SCORE.INTRA.DIHEDRAL>
-1.75519

>  <SCORE.INTRA.DIHEDRAL.0>
4.88619

>  <SCORE.INTRA.POLAR>
0

>  <SCORE.INTRA.POLAR.0>
0

>  <SCORE.INTRA.REPUL>
0

>  <SCORE.INTRA.REPUL.0>
0

>  <SCORE.INTRA.SOLV>
2.69203

>  <SCORE.INTRA.SOLV.lig_0>
-73.8187

>  <SCORE.INTRA.VDW>
0.562938

>  <SCORE.INTRA.VDW.0>
-1.32335

>  <SCORE.INTRA.norm>
0.0468801

>  <SCORE.RESTR>
0

>  <SCORE.RESTR.CAVITY>
0

>  <SCORE.RESTR.norm>
0

>  <SCORE.SYSTEM>
0

>  <SCORE.SYSTEM.CONST>
0

>  <SCORE.SYSTEM.DIHEDRAL>
0

>  <SCORE.SYSTEM.SOLV>
0

>  <SCORE.SYSTEM.norm>
0

>  <SCORE.heavy>
22

>  <SCORE.norm>
-0.621439

>  <RMSD>
6.454

$$$$
2fcx_lig
 OpenBabel11021811433D
libRbt.so/2013.1/901 2013/11/27
 22 23  0  0  0  0  0  0  0  0999 V2000
   27.3176    9.1237   18.2147 N   0  0  0  0  0  0  0  0  0  0  0  0
   29.3389    9.6353   13.7732 N   0  0  0  0  0  0  0  0  0  0  0  0
   27.4085   12.9375   11.8193 N   0  0  0  0  0  0  0  0  0  0  0  0
   24.5966    8.6282   14.1936 O   0  0  0  0  0  0  0  0  0  0  0  0
   25.8864    8.3809   14.7600 C   0  0  2  0  0  0  0  0  0  0  0  0
   25.9178    6.7112   10.6499 N   0  0  0  0  0  0  0  0  0  0  0  0
   24.9606    8.0418   16.9477 O   0  0  0  0  0  0  0  0  0  0  0  0
   25.9099    8.8321   16.2223 C   0  0  1  0  0  0  0  0  0  0  0  0
   27.0235    8.4941   12.6094 O   0  0  0  0  0  0  0  0  0  0  0  0
   27.3031    8.6405   16.8262 C   0  0  1  0  0  0  0  0  0  0  0  0
   26.1163   10.3406   11.4872 O   0  0  0  0  0  0  0  0  0  0  0  0
   28.3518    9.4095   16.0156 C   0  0  0  0  0  0  0  0  0  0  0  0
   28.6883   10.2541    8.8303 O   0  0  0  0  0  0  0  0  0  0  0  0
   28.3406    8.9072   14.5690 C   0  0  1  0  0  0  0  0  0  0  0  0
   27.3556    7.7884    8.4124 O   0  0  0  0  0  0  0  0  0  0  0  0
   26.9636    9.0791   13.9209 C   0  0  2  0  0  0  0  0  0  0  0  0
   25.9671    8.9308   11.7369 C   0  0  1  0  0  0  0  0  0  0  0  0
   27.3368   10.6901   10.8036 C   0  0  2  0  0  0  0  0  0  0  0  0
   27.3946   12.1978   10.5484 C   0  0  0  0  0  0  0  0  0  0  0  0
   27.4335    9.9691    9.4563 C   0  0  2  0  0  0  0  0  0  0  0  0
   27.3287    8.4587    9.6739 C   0  0  1  0  0  0  0  0  0  0  0  0
   26.0226    8.1574   10.4138 C   0  0  1  0  0  0  0  0  0  0  0  0
  5  4  1  6  0  0  0
  5  8  1  0  0  0  0
  5 16  1  0  0  0  0
  8  7  1  1  0  0  0
  8 10  1  0  0  0  0
 10  1  1  1  0  0  0
 10 12  1  0  0  0  0
 11 18  1  0  0  0  0
 12 14  1  0  0  0  0
 14  2  1  6  0  0  0
 14 16  1  0  0  0  0
 16  9  1  6  0  0  0
 17  9  1  1  0  0  0
 17 11  1  0  0  0  0
 17 22  1  0  0  0  0
 18 19  1  6  0  0  0
 18 20  1  0  0  0  0
 19  3  1  0  0  0  0
 20 13  1  1  0  0  0
 20 21  1  0  0  0  0
 21 15  1  6  0  0  0
 21 22  1  0  0  0  0
 22  6  1  1  0  0  0
M  END
>  <CHROM.1>
77.73453396,64.98630051,62.64563587,26.93712648,9.25035603,12.78395423,-1.76331817
-0.99728380,-1.60999525

>  <Name>
2fcx_lig

>  <RI>
3.23342e+07

>  <Rbt.Current_Directory>
/home/itssahil/PROJECTS/Mol_Feturizer/New_Systems/rnas/2fcx

>  <Rbt.Executable>
rbdock ($Id: //depot/dev/client3/rdock/2013.1/src/exe/rbdock.cxx#4 $)

>  <Rbt.Library>
libRbt.so (2013.1, Build901 2013/11/27)

>  <Rbt.Parameter_File>
/export/apps/rDock/src/rDock_2013.1_src/data/scripts/dock_solv.prm

>  <Rbt.Receptor>
prm/pocket_docking_5.prm

>  <SCORE>
-9.67066

>  <SCORE.INTER>
-7.75208

>  <SCORE.INTER.CONST>
1

>  <SCORE.INTER.POLAR>
-0.979796

>  <SCORE.INTER.ROT>
3

>  <SCORE.INTER.SOLV>
8.75608

>  <SCORE.INTER.VDW>
-10.4208

>  <SCORE.INTER.norm>
-0.352367

>  <SCORE.INTRA>
-1.91858

>  <SCORE.INTRA.DIHEDRAL>
-3.2882

>  <SCORE.INTRA.DIHEDRAL.0>
4.88619

>  <SCORE.INTRA.POLAR>
0

>  <SCORE.INTRA.POLAR.0>
0

>  <SCORE.INTRA.REPUL>
0

>  <SCORE.INTRA.REPUL.0>
0

>  <SCORE.INTRA.SOLV>
-0.269309

>  <SCORE.INTRA.SOLV.lig_0>
-73.8187

>  <SCORE.INTRA.VDW>
-0.139825

>  <SCORE.INTRA.VDW.0>
-1.32335

>  <SCORE.INTRA.norm>
-0.0872081

>  <SCORE.RESTR>
0

>  <SCORE.RESTR.CAVITY>
0

>  <SCORE.RESTR.norm>
0

>  <SCORE.SYSTEM>
0

>  <SCORE.SYSTEM.CONST>
0

>  <SCORE.SYSTEM.DIHEDRAL>
0

>  <SCORE.SYSTEM.SOLV>
0

>  <SCORE.SYSTEM.norm>
0

>  <SCORE.heavy>
22

>  <SCORE.norm>
-0.439576

>  <RMSD>
6.465

$$$$
2fcx_lig
 OpenBabel11021811433D
libRbt.so/2013.1/901 2013/11/27
 22 23  0  0  0  0  0  0  0  0999 V2000
   30.2243   11.9900   14.6999 N   0  0  0  0  0  0  0  0  0  0  0  0
   28.8855   11.0858   10.0669 N   0  0  0  0  0  0  0  0  0  0  0  0
   24.3173   10.7290   10.3723 N   0  0  0  0  0  0  0  0  0  0  0  0
   27.6364    7.9972   13.6138 O   0  0  0  0  0  0  0  0  0  0  0  0
   28.6696    8.8719   13.1522 C   0  0  2  0  0  0  0  0  0  0  0  0
   28.3920    5.6729   10.0584 N   0  0  0  0  0  0  0  0  0  0  0  0
   29.4292    9.3018   15.3874 O   0  0  0  0  0  0  0  0  0  0  0  0
   28.9502    9.9490   14.2027 C   0  0  1  0  0  0  0  0  0  0  0  0
   28.1996    8.4388   10.8022 O   0  0  0  0  0  0  0  0  0  0  0  0
   30.0041   10.9371   13.6976 C   0  0  1  0  0  0  0  0  0  0  0  0
   25.8599    8.3065   10.8105 O   0  0  0  0  0  0  0  0  0  0  0  0
   29.5518   11.5816   12.3829 C   0  0  0  0  0  0  0  0  0  0  0  0
   25.6342    8.3736    7.1192 O   0  0  0  0  0  0  0  0  0  0  0  0
   29.3233   10.4877   11.3360 C   0  0  1  0  0  0  0  0  0  0  0  0
   27.0026    5.9318    7.5610 O   0  0  0  0  0  0  0  0  0  0  0  0
   28.2735    9.4727   11.7980 C   0  0  2  0  0  0  0  0  0  0  0  0
   27.0775    7.5559   10.9730 C   0  0  1  0  0  0  0  0  0  0  0  0
   25.6925    8.8769    9.4969 C   0  0  2  0  0  0  0  0  0  0  0  0
   24.3600    9.6236    9.4034 C   0  0  0  0  0  0  0  0  0  0  0  0
   25.7106    7.7867    8.4220 C   0  0  2  0  0  0  0  0  0  0  0  0
   27.0119    6.9890    8.5221 C   0  0  1  0  0  0  0  0  0  0  0  0
   27.1351    6.4241    9.9398 C   0  0  1  0  0  0  0  0  0  0  0  0
  5  4  1  1  0  0  0
  5  8  1  0  0  0  0
  5 16  1  0  0  0  0
  8  7  1  1  0  0  0
  8 10  1  0  0  0  0
 10  1  1  1  0  0  0
 10 12  1  0  0  0  0
 11 18  1  0  0  0  0
 12 14  1  0  0  0  0
 14  2  1  6  0  0  0
 14 16  1  0  0  0  0
 16  9  1  6  0  0  0
 17  9  1  6  0  0  0
 17 11  1  0  0  0  0
 17 22  1  0  0  0  0
 18 19  1  1  0  0  0
 18 20  1  0  0  0  0
 19  3  1  0  0  0  0
 20 13  1  6  0  0  0
 20 21  1  0  0  0  0
 21 15  1  6  0  0  0
 21 22  1  0  0  0  0
 22  6  1  6  0  0  0
M  END
>  <CHROM.1>
70.94997988,63.71320841,61.19357102,27.58860118,8.89937468,11.07263594,0.72524668
-0.85834608,0.36895967

>  <Name>
2fcx_lig

>  <RI>
4.08374e+07

>  <Rbt.Current_Directory>
/home/itssahil/PROJECTS/Mol_Feturizer/New_Systems/rnas/2fcx

>  <Rbt.Executable>
rbdock ($Id: //depot/dev/client3/rdock/2013.1/src/exe/rbdock.cxx#4 $)

>  <Rbt.Library>
libRbt.so (2013.1, Build901 2013/11/27)

>  <Rbt.Parameter_File>
/export/apps/rDock/src/rDock_2013.1_src/data/scripts/dock_solv.prm

>  <Rbt.Receptor>
prm/pocket_docking_7.prm

>  <SCORE>
-11.9176

>  <SCORE.INTER>
-9.74936

>  <SCORE.INTER.CONST>
1

>  <SCORE.INTER.POLAR>
-1.95174

>  <SCORE.INTER.ROT>
3

>  <SCORE.INTER.SOLV>
12.8393

>  <SCORE.INTER.VDW>
-9.87354

>  <SCORE.INTER.norm>
-0.443153

>  <SCORE.INTRA>
-2.16827

>  <SCORE.INTRA.DIHEDRAL>
-4.22955

>  <SCORE.INTRA.DIHEDRAL.0>
4.88619

>  <SCORE.INTRA.POLAR>
0

>  <SCORE.INTRA.POLAR.0>
0

>  <SCORE.INTRA.REPUL>
0

>  <SCORE.INTRA.REPUL.0>
0

>  <SCORE.INTRA.SOLV>
-0.737004

>  <SCORE.INTRA.SOLV.lig_0>
-73.8187

>  <SCORE.INTRA.VDW>
0.315012

>  <SCORE.INTRA.VDW.0>
-1.32335

>  <SCORE.INTRA.norm>
-0.0985576

>  <SCORE.RESTR>
0

>  <SCORE.RESTR.CAVITY>
0

>  <SCORE.RESTR.norm>
0

>  <SCORE.SYSTEM>
0

>  <SCORE.SYSTEM.CONST>
0

>  <SCORE.SYSTEM.DIHEDRAL>
0

>  <SCORE.SYSTEM.SOLV>
0

>  <SCORE.SYSTEM.norm>
0

>  <SCORE.heavy>
22

>  <SCORE.norm>
-0.54171

>  <RMSD>
6.468

$$$$
2fcx_lig
 OpenBabel11021811433D
libRbt.so/2013.1/901 2013/11/27
 22 23  0  0  0  0  0  0  0  0999 V2000
   26.0292   10.8773    5.4812 N   0  0  0  0  0  0  0  0  0  0  0  0
   26.6645   13.0451    9.8369 N   0  0  0  0  0  0  0  0  0  0  0  0
   31.0273   13.5240   10.2851 N   0  0  0  0  0  0  0  0  0  0  0  0
   28.6598    8.6935    8.9641 O   0  0  0  0  0  0  0  0  0  0  0  0
   27.5123    9.5105    8.7166 C   0  0  2  0  0  0  0  0  0  0  0  0
   27.6291    8.7776   13.1098 N   0  0  0  0  0  0  0  0  0  0  0  0
   27.0942    8.4429    6.6086 O   0  0  0  0  0  0  0  0  0  0  0  0
   27.3352    9.7201    7.2109 C   0  0  1  0  0  0  0  0  0  0  0  0
   27.6269   10.6000   10.8917 O   0  0  0  0  0  0  0  0  0  0  0  0
   26.1531   10.6502    6.9286 C   0  0  1  0  0  0  0  0  0  0  0  0
   29.9032   11.0507   11.2191 O   0  0  0  0  0  0  0  0  0  0  0  0
   26.3470   11.9969    7.6337 C   0  0  0  0  0  0  0  0  0  0  0  0
   29.2666   13.2264   14.1419 O   0  0  0  0  0  0  0  0  0  0  0  0
   26.4745   11.7642    9.1418 C   0  0  1  0  0  0  0  0  0  0  0  0
   28.3638   10.7150   15.0949 O   0  0  0  0  0  0  0  0  0  0  0  0
   27.6474   10.8371    9.4742 C   0  0  2  0  0  0  0  0  0  0  0  0
   28.8629   10.0729   11.4039 C   0  0  1  0  0  0  0  0  0  0  0  0
   29.6899   12.2792   11.9432 C   0  0  2  0  0  0  0  0  0  0  0  0
   30.8573   13.2427   11.7184 C   0  0  0  0  0  0  0  0  0  0  0  0
   29.5673   12.0128   13.4460 C   0  0  2  0  0  0  0  0  0  0  0  0
   28.4382   11.0125   13.6994 C   0  0  1  0  0  0  0  0  0  0  0  0
   28.7172    9.7408   12.8939 C   0  0  1  0  0  0  0  0  0  0  0  0
  5  4  1  6  0  0  0
  5  8  1  0  0  0  0
  5 16  1  0  0  0  0
  8  7  1  6  0  0  0
  8 10  1  0  0  0  0
 10  1  1  6  0  0  0
 10 12  1  0  0  0  0
 11 18  1  0  0  0  0
 12 14  1  0  0  0  0
 14  2  1  1  0  0  0
 14 16  1  0  0  0  0
 16  9  1  1  0  0  0
 17  9  1  1  0  0  0
 17 11  1  0  0  0  0
 17 22  1  0  0  0  0
 18 19  1  1  0  0  0
 18 20  1  0  0  0  0
 19  3  1  0  0  0  0
 20 13  1  1  0  0  0
 20 21  1  0  0  0  0
 21 15  1  1  0  0  0
 21 22  1  0  0  0  0
 22  6  1  6  0  0  0
M  END
>  <CHROM.1>
76.39862999,64.04059522,57.84162795,28.19209859,10.97746508,10.47332879,-2.52363635
1.10765992,2.23972402

>  <Name>
2fcx_lig

>  <RI>
1.15031e+07

>  <Rbt.Current_Directory>
/home/itssahil/PROJECTS/Mol_Feturizer/New_Systems/rnas/2fcx

>  <Rbt.Executable>
rbdock ($Id: //depot/dev/client3/rdock/2013.1/src/exe/rbdock.cxx#4 $)

>  <Rbt.Library>
libRbt.so (2013.1, Build901 2013/11/27)

>  <Rbt.Parameter_File>
/export/apps/rDock/src/rDock_2013.1_src/data/scripts/dock_solv.prm

>  <Rbt.Receptor>
prm/pocket_docking_8.prm

>  <SCORE>
-8.11155

>  <SCORE.INTER>
-6.07384

>  <SCORE.INTER.CONST>
1

>  <SCORE.INTER.POLAR>
-1.07241

>  <SCORE.INTER.ROT>
3

>  <SCORE.INTER.SOLV>
18.0005

>  <SCORE.INTER.VDW>
-12.0747

>  <SCORE.INTER.norm>
-0.276084

>  <SCORE.INTRA>
-2.03771

>  <SCORE.INTRA.DIHEDRAL>
-3.53191

>  <SCORE.INTRA.DIHEDRAL.0>
4.88619

>  <SCORE.INTRA.POLAR>
0

>  <SCORE.INTRA.POLAR.0>
0

>  <SCORE.INTRA.REPUL>
0

>  <SCORE.INTRA.REPUL.0>
0

>  <SCORE.INTRA.SOLV>
-0.452221

>  <SCORE.INTRA.SOLV.lig_0>
-73.8187

>  <SCORE.INTRA.VDW>
-0.0456451

>  <SCORE.INTRA.VDW.0>
-1.32335

>  <SCORE.INTRA.norm>
-0.0926231

>  <SCORE.RESTR>
0

>  <SCORE.RESTR.CAVITY>
0

>  <SCORE.RESTR.norm>
0

>  <SCORE.SYSTEM>
0

>  <SCORE.SYSTEM.CONST>
0

>  <SCORE.SYSTEM.DIHEDRAL>
0

>  <SCORE.SYSTEM.SOLV>
0

>  <SCORE.SYSTEM.norm>
0

>  <SCORE.heavy>
22

>  <SCORE.norm>
-0.368707

>  <RMSD>
6.471

$$$$
2fcx_lig
 OpenBabel11021811433D
libRbt.so/2013.1/901 2013/11/27
 22 23  0  0  0  0  0  0  0  0999 V2000
   26.5762    7.4166   17.8957 N   0  0  0  0  0  0  0  0  0  0  0  0
   25.2494   10.1426   14.0378 N   0  0  0  0  0  0  0  0  0  0  0  0
   28.1410    8.3932    9.0474 N   0  0  0  0  0  0  0  0  0  0  0  0
   29.9039    8.8509   14.6265 O   0  0  0  0  0  0  0  0  0  0  0  0
   28.7149    9.2399   15.3195 C   0  0  2  0  0  0  0  0  0  0  0  0
   29.8081   12.7946   12.7681 N   0  0  0  0  0  0  0  0  0  0  0  0
   29.3353    7.9903   17.2719 O   0  0  0  0  0  0  0  0  0  0  0  0
   28.2962    8.1392   16.2971 C   0  0  1  0  0  0  0  0  0  0  0  0
   27.9748   10.7231   13.5352 O   0  0  0  0  0  0  0  0  0  0  0  0
   26.9861    8.5063   16.9978 C   0  0  1  0  0  0  0  0  0  0  0  0
   28.5396    9.4754   11.6336 O   0  0  0  0  0  0  0  0  0  0  0  0
   25.8769    8.7547   15.9700 C   0  0  0  0  0  0  0  0  0  0  0  0
   26.5436   11.6209    9.3764 O   0  0  0  0  0  0  0  0  0  0  0  0
   26.2999    9.8905   15.0342 C   0  0  1  0  0  0  0  0  0  0  0  0
   28.5212   13.4358   10.2847 O   0  0  0  0  0  0  0  0  0  0  0  0
   27.6094    9.5678   14.3084 C   0  0  2  0  0  0  0  0  0  0  0  0
   29.0080   10.4643   12.5691 C   0  0  1  0  0  0  0  0  0  0  0  0
   27.3975    9.8939   10.8593 C   0  0  2  0  0  0  0  0  0  0  0  0
   26.9915    8.7996    9.8697 C   0  0  0  0  0  0  0  0  0  0  0  0
   27.7109   11.1669   10.0684 C   0  0  2  0  0  0  0  0  0  0  0  0
   28.1684   12.2673   11.0274 C   0  0  1  0  0  0  0  0  0  0  0  0
   29.3704   11.7559   11.8259 C   0  0  1  0  0  0  0  0  0  0  0  0
  5  4  1  6  0  0  0
  5  8  1  0  0  0  0
  5 16  1  0  0  0  0
  8  7  1  1  0  0  0
  8 10  1  0  0  0  0
 10  1  1  1  0  0  0
 10 12  1  0  0  0  0
 11 18  1  0  0  0  0
 12 14  1  0  0  0  0
 14  2  1  6  0  0  0
 14 16  1  0  0  0  0
 16  9  1  1  0  0  0
 17  9  1  1  0  0  0
 17 11  1  0  0  0  0
 17 22  1  0  0  0  0
 18 19  1  6  0  0  0
 18 20  1  0  0  0  0
 19  3  1  0  0  0  0
 20 13  1  1  0  0  0
 20 21  1  0  0  0  0
 21 15  1  6  0  0  0
 21 22  1  0  0  0  0
 22  6  1  1  0  0  0
M  END
>  <CHROM.1>
73.08418157,61.33857203,-53.45593924,27.88491479,9.97839949,13.18686194,1.64317796
0.72172801,1.94704299

>  <Name>
2fcx_lig

>  <RI>
1.55453e+07

>  <Rbt.Current_Directory>
/home/itssahil/PROJECTS/Mol_Feturizer/New_Systems/rnas/2fcx

>  <Rbt.Executable>
rbdock ($Id: //depot/dev/client3/rdock/2013.1/src/exe/rbdock.cxx#4 $)

>  <Rbt.Library>
libRbt.so (2013.1, Build901 2013/11/27)

>  <Rbt.Parameter_File>
/export/apps/rDock/src/rDock_2013.1_src/data/scripts/dock_solv.prm

>  <Rbt.Receptor>
prm/pocket_docking_4.prm

>  <SCORE>
-13.2134

>  <SCORE.INTER>
-11.8192

>  <SCORE.INTER.CONST>
1

>  <SCORE.INTER.POLAR>
-1.67919

>  <SCORE.INTER.ROT>
3

>  <SCORE.INTER.SOLV>
11.9206

>  <SCORE.INTER.VDW>
-11.8557

>  <SCORE.INTER.norm>
-0.537237

>  <SCORE.INTRA>
-1.3942

>  <SCORE.INTRA.DIHEDRAL>
-3.90684

>  <SCORE.INTRA.DIHEDRAL.0>
4.88619

>  <SCORE.INTRA.POLAR>
0

>  <SCORE.INTRA.POLAR.0>
0

>  <SCORE.INTRA.REPUL>
0

>  <SCORE.INTRA.REPUL.0>
0

>  <SCORE.INTRA.SOLV>
0.570066

>  <SCORE.INTRA.SOLV.lig_0>
-73.8187

>  <SCORE.INTRA.VDW>
0.274184

>  <SCORE.INTRA.VDW.0>
-1.32335

>  <SCORE.INTRA.norm>
-0.0633729

>  <SCORE.RESTR>
0

>  <SCORE.RESTR.CAVITY>
0

>  <SCORE.RESTR.norm>
0

>  <SCORE.SYSTEM>
0

>  <SCORE.SYSTEM.CONST>
0

>  <SCORE.SYSTEM.DIHEDRAL>
0

>  <SCORE.SYSTEM.SOLV>
0

>  <SCORE.SYSTEM.norm>
0

>  <SCORE.heavy>
22

>  <SCORE.norm>
-0.60061

>  <RMSD>
6.480

$$$$
2fcx_lig
 OpenBabel11021811433D
libRbt.so/2013.1/901 2013/11/27
 22 23  0  0  0  0  0  0  0  0999 V2000
   26.9370    6.7988   18.7032 N   0  0  0  0  0  0  0  0  0  0  0  0
   27.6785    7.4791   13.9010 N   0  0  0  0  0  0  0  0  0  0  0  0
   27.9305    8.9153   10.0449 N   0  0  0  0  0  0  0  0  0  0  0  0
   29.0194   10.9056   17.0856 O   0  0  0  0  0  0  0  0  0  0  0  0
   28.0258    9.9173   16.7995 C   0  0  2  0  0  0  0  0  0  0  0  0
   30.1546   12.2230   15.0184 N   0  0  0  0  0  0  0  0  0  0  0  0
   27.5549    9.5859   19.1290 O   0  0  0  0  0  0  0  0  0  0  0  0
   27.9595    8.8981   17.9394 C   0  0  1  0  0  0  0  0  0  0  0  0
   28.1973   10.2196   14.3891 O   0  0  0  0  0  0  0  0  0  0  0  0
   26.9510    7.7923   17.6195 C   0  0  1  0  0  0  0  0  0  0  0  0
   29.0854    9.9840   12.2333 O   0  0  0  0  0  0  0  0  0  0  0  0
   27.3147    7.0957   16.3039 C   0  0  0  0  0  0  0  0  0  0  0  0
   27.5448   13.1237   11.0288 O   0  0  0  0  0  0  0  0  0  0  0  0
   27.3284    8.1276   15.1726 C   0  0  1  0  0  0  0  0  0  0  0  0
   29.3406   14.0896   12.9966 O   0  0  0  0  0  0  0  0  0  0  0  0
   28.3257    9.2567   15.4484 C   0  0  2  0  0  0  0  0  0  0  0  0
   29.3854   10.3573   13.5908 C   0  0  1  0  0  0  0  0  0  0  0  0
   28.1046   10.8267   11.5955 C   0  0  2  0  0  0  0  0  0  0  0  0
   27.8749   10.3811   10.1496 C   0  0  0  0  0  0  0  0  0  0  0  0
   28.5650   12.2869   11.5825 C   0  0  2  0  0  0  0  0  0  0  0  0
   28.8509   12.7475   13.0128 C   0  0  1  0  0  0  0  0  0  0  0  0
   29.8855   11.8063   13.6355 C   0  0  1  0  0  0  0  0  0  0  0  0
  5  4  1  1  0  0  0
  5  8  1  0  0  0  0
  5 16  1  0  0  0  0
  8  7  1  1  0  0  0
  8 10  1  0  0  0  0
 10  1  1  1  0  0  0
 10 12  1  0  0  0  0
 11 18  1  0  0  0  0
 12 14  1  0  0  0  0
 14  2  1  6  0  0  0
 14 16  1  0  0  0  0
 16  9  1  6  0  0  0
 17  9  1  1  0  0  0
 17 11  1  0  0  0  0
 17 22  1  0  0  0  0
 18 19  1  6  0  0  0
 18 20  1  0  0  0  0
 19  3  1  0  0  0  0
 20 13  1  1  0  0  0
 20 21  1  0  0  0  0
 21 15  1  6  0  0  0
 21 22  1  0  0  0  0
 22  6  1  1  0  0  0
M  END
>  <CHROM.1>
123.26254114,118.20282069,37.04878856,28.27830540,10.17143629,14.42137115
2.00252273,1.22234042,1.68117243

>  <Name>
2fcx_lig

>  <RI>
1.21945e+07

>  <Rbt.Current_Directory>
/home/itssahil/PROJECTS/Mol_Feturizer/New_Systems/rnas/2fcx

>  <Rbt.Executable>
rbdock ($Id: //depot/dev/client3/rdock/2013.1/src/exe/rbdock.cxx#4 $)

>  <Rbt.Library>
libRbt.so (2013.1, Build901 2013/11/27)

>  <Rbt.Parameter_File>
/export/apps/rDock/src/rDock_2013.1_src/data/scripts/dock_solv.prm

>  <Rbt.Receptor>
prm/pocket_docking_3.prm

>  <SCORE>
-5.45143

>  <SCORE.INTER>
-11.5263

>  <SCORE.INTER.CONST>
1

>  <SCORE.INTER.POLAR>
-1.70441

>  <SCORE.INTER.ROT>
3

>  <SCORE.INTER.SOLV>
13.4562

>  <SCORE.INTER.VDW>
-12.0882

>  <SCORE.INTER.norm>
-0.523924

>  <SCORE.INTRA>
6.07489

>  <SCORE.INTRA.DIHEDRAL>
11.1433

>  <SCORE.INTRA.DIHEDRAL.0>
4.88619

>  <SCORE.INTRA.POLAR>
0

>  <SCORE.INTRA.POLAR.0>
0

>  <SCORE.INTRA.REPUL>
0

>  <SCORE.INTRA.REPUL.0>
0

>  <SCORE.INTRA.SOLV>
2.21637

>  <SCORE.INTRA.SOLV.lig_0>
-73.8187

>  <SCORE.INTRA.VDW>
-0.604941

>  <SCORE.INTRA.VDW.0>
-1.32335

>  <SCORE.INTRA.norm>
0.276131

>  <SCORE.RESTR>
0

>  <SCORE.RESTR.CAVITY>
0

>  <SCORE.RESTR.norm>
0

>  <SCORE.SYSTEM>
0

>  <SCORE.SYSTEM.CONST>
0

>  <SCORE.SYSTEM.DIHEDRAL>
0

>  <SCORE.SYSTEM.SOLV>
0

>  <SCORE.SYSTEM.norm>
0

>  <SCORE.heavy>
22

>  <SCORE.norm>
-0.247792

>  <RMSD>
6.488

$$$$
2fcx_lig
 OpenBabel11021811433D
libRbt.so/2013.1/901 2013/11/27
 22 23  0  0  0  0  0  0  0  0999 V2000
   28.7764   11.5790    9.6116 N   0  0  0  0  0  0  0  0  0  0  0  0
   28.0245   15.2507   12.7783 N   0  0  0  0  0  0  0  0  0  0  0  0
   32.3458   16.9739   14.2152 N   0  0  0  0  0  0  0  0  0  0  0  0
   31.0463   11.6150   13.9319 O   0  0  0  0  0  0  0  0  0  0  0  0
   29.8252   11.9351   13.2597 C   0  0  2  0  0  0  0  0  0  0  0  0
   28.9218   12.4156   17.3533 N   0  0  0  0  0  0  0  0  0  0  0  0
   30.0874   10.1109   11.7228 O   0  0  0  0  0  0  0  0  0  0  0  0
   29.9189   11.5321   11.7862 C   0  0  1  0  0  0  0  0  0  0  0  0
   29.2548   13.7184   14.8171 O   0  0  0  0  0  0  0  0  0  0  0  0
   28.6475   11.9307   11.0333 C   0  0  1  0  0  0  0  0  0  0  0  0
   31.3478   14.5395   15.4779 O   0  0  0  0  0  0  0  0  0  0  0  0
   28.3981   13.4376   11.1576 C   0  0  0  0  0  0  0  0  0  0  0  0
   29.8731   17.1653   17.6254 O   0  0  0  0  0  0  0  0  0  0  0  0
   28.2615   13.8070   12.6373 C   0  0  1  0  0  0  0  0  0  0  0  0
   29.0104   14.8065   18.9377 O   0  0  0  0  0  0  0  0  0  0  0  0
   29.5132   13.4265   13.4336 C   0  0  2  0  0  0  0  0  0  0  0  0
   30.3859   13.4865   15.6741 C   0  0  1  0  0  0  0  0  0  0  0  0
   30.8659   15.8498   15.8382 C   0  0  2  0  0  0  0  0  0  0  0  0
   31.9614   16.8983   15.6326 C   0  0  0  0  0  0  0  0  0  0  0  0
   30.4320   15.8873   17.3061 C   0  0  2  0  0  0  0  0  0  0  0  0
   29.3705   14.8146   17.5550 C   0  0  1  0  0  0  0  0  0  0  0  0
   29.9385   13.4546   17.1406 C   0  0  1  0  0  0  0  0  0  0  0  0
  5  4  1  1  0  0  0
  5  8  1  0  0  0  0
  5 16  1  0  0  0  0
  8  7  1  1  0  0  0
  8 10  1  0  0  0  0
 10  1  1  6  0  0  0
 10 12  1  0  0  0  0
 11 18  1  0  0  0  0
 12 14  1  0  0  0  0
 14  2  1  6  0  0  0
 14 16  1  0  0  0  0
 16  9  1  1  0  0  0
 17  9  1  6  0  0  0
 17 11  1  0  0  0  0
 17 22  1  0  0  0  0
 18 19  1  1  0  0  0
 18 20  1  0  0  0  0
 19  3  1  0  0  0  0
 20 13  1  6  0  0  0
 20 21  1  0  0  0  0
 21 15  1  1  0  0  0
 21 22  1  0  0  0  0
 22  6  1  6  0  0  0
M  END
>  <CHROM.1>
63.34007449,74.39191461,62.52875925,29.84181551,13.84744780,14.52978285,-2.12759269
1.28405260,1.52626353

>  <Name>
2fcx_lig

>  <RI>
0

>  <Rbt.Current_Directory>
/home/itssahil/PROJECTS/Mol_Feturizer/New_Systems/rnas/2fcx

>  <Rbt.Executable>
rbdock ($Id: //depot/dev/client3/rdock/2013.1/src/exe/rbdock.cxx#4 $)

>  <Rbt.Library>
libRbt.so (2013.1, Build901 2013/11/27)

>  <Rbt.Parameter_File>
/export/apps/rDock/src/rDock_2013.1_src/data/scripts/dock_solv.prm

>  <Rbt.Receptor>
prm/pocket_docking_6.prm

>  <SCORE>
-11.3575

>  <SCORE.INTER>
-10.6439

>  <SCORE.INTER.CONST>
1

>  <SCORE.INTER.POLAR>
-1.83826

>  <SCORE.INTER.ROT>
3

>  <SCORE.INTER.SOLV>
15.6436

>  <SCORE.INTER.VDW>
-11.783

>  <SCORE.INTER.norm>
-0.483813

>  <SCORE.INTRA>
-1.35887

>  <SCORE.INTRA.DIHEDRAL>
-3.82657

>  <SCORE.INTRA.DIHEDRAL.0>
4.88619

>  <SCORE.INTRA.POLAR>
0

>  <SCORE.INTRA.POLAR.0>
0

>  <SCORE.INTRA.REPUL>
0

>  <SCORE.INTRA.REPUL.0>
0

>  <SCORE.INTRA.SOLV>
-0.875439

>  <SCORE.INTRA.SOLV.lig_0>
-73.8187

>  <SCORE.INTRA.VDW>
0.992137

>  <SCORE.INTRA.VDW.0>
-1.32335

>  <SCORE.INTRA.norm>
-0.0617667

>  <SCORE.RESTR>
0.64524

>  <SCORE.RESTR.CAVITY>
0.64524

>  <SCORE.RESTR.norm>
0.0293291

>  <SCORE.SYSTEM>
0

>  <SCORE.SYSTEM.CONST>
0

>  <SCORE.SYSTEM.DIHEDRAL>
0

>  <SCORE.SYSTEM.SOLV>
0

>  <SCORE.SYSTEM.norm>
0

>  <SCORE.heavy>
22

>  <SCORE.norm>
-0.516251

>  <RMSD>
6.490

$$$$
2fcx_lig
 OpenBabel11021811433D
libRbt.so/2013.1/901 2013/11/27
 22 23  0  0  0  0  0  0  0  0999 V2000
   26.5713    7.3665   17.8323 N   0  0  0  0  0  0  0  0  0  0  0  0
   25.1797   10.1566   14.0437 N   0  0  0  0  0  0  0  0  0  0  0  0
   28.1881    8.4165    8.9935 N   0  0  0  0  0  0  0  0  0  0  0  0
   29.8332    8.8090   14.5009 O   0  0  0  0  0  0  0  0  0  0  0  0
   28.6656    9.2012   15.2280 C   0  0  2  0  0  0  0  0  0  0  0  0
   29.7315   12.8093   12.7786 N   0  0  0  0  0  0  0  0  0  0  0  0
   29.3203    7.9196   17.1482 O   0  0  0  0  0  0  0  0  0  0  0  0
   28.2593    8.0922   16.2013 C   0  0  1  0  0  0  0  0  0  0  0  0
   27.8981   10.7154   13.4817 O   0  0  0  0  0  0  0  0  0  0  0  0
   26.9707    8.4636   16.9387 C   0  0  1  0  0  0  0  0  0  0  0  0
   28.5145    9.4936   11.5793 O   0  0  0  0  0  0  0  0  0  0  0  0
   25.8394    8.7370   15.9419 C   0  0  0  0  0  0  0  0  0  0  0  0
   26.5521   11.6491    9.3025 O   0  0  0  0  0  0  0  0  0  0  0  0
   26.2515    9.8806   15.0107 C   0  0  1  0  0  0  0  0  0  0  0  0
   28.4948   13.4687   10.2746 O   0  0  0  0  0  0  0  0  0  0  0  0
   27.5393    9.5539   14.2488 C   0  0  2  0  0  0  0  0  0  0  0  0
   28.9543   10.4753   12.5359 C   0  0  1  0  0  0  0  0  0  0  0  0
   27.3865    9.9121   10.7847 C   0  0  2  0  0  0  0  0  0  0  0  0
   27.0111    8.8259    9.7742 C   0  0  0  0  0  0  0  0  0  0  0  0
   27.7073   11.1963   10.0151 C   0  0  2  0  0  0  0  0  0  0  0  0
   28.1348   12.2892   10.9962 C   0  0  1  0  0  0  0  0  0  0  0  0
   29.3229   11.7780   11.8154 C   0  0  1  0  0  0  0  0  0  0  0  0
  5  4  1  6  0  0  0
  5  8  1  0  0  0  0
  5 16  1  0  0  0  0
  8  7  1  1  0  0  0
  8 10  1  0  0  0  0
 10  1  1  1  0  0  0
 10 12  1  0  0  0  0
 11 18  1  0  0  0  0
 12 14  1  0  0  0  0
 14  2  1  6  0  0  0
 14 16  1  0  0  0  0
 16  9  1  1  0  0  0
 17  9  1  1  0  0  0
 17 11  1  0  0  0  0
 17 22  1  0  0  0  0
 18 19  1  6  0  0  0
 18 20  1  0  0  0  0
 19  3  1  0  0  0  0
 20 13  1  1  0  0  0
 20 21  1  0  0  0  0
 21 15  1  6  0  0  0
 21 22  1  0  0  0  0
 22  6  1  1  0  0  0
M  END
>  <CHROM.1>
69.96556592,62.27535731,-52.20591879,27.85330985,9.97469191,13.13163166,1.65264802
0.75898230,1.94861491

>  <Name>
2fcx_lig

>  <RI>
1.55453e+07

>  <Rbt.Current_Directory>
/home/itssahil/PROJECTS/Mol_Feturizer/New_Systems/rnas/2fcx

>  <Rbt.Executable>
rbdock ($Id: //depot/dev/client3/rdock/2013.1/src/exe/rbdock.cxx#4 $)

>  <Rbt.Library>
libRbt.so (2013.1, Build901 2013/11/27)

>  <Rbt.Parameter_File>
/export/apps/rDock/src/rDock_2013.1_src/data/scripts/dock_solv.prm

>  <Rbt.Receptor>
prm/pocket_docking_4.prm

>  <SCORE>
-13.1631

>  <SCORE.INTER>
-11.7939

>  <SCORE.INTER.CONST>
1

>  <SCORE.INTER.POLAR>
-1.69882

>  <SCORE.INTER.ROT>
3

>  <SCORE.INTER.SOLV>
12.3113

>  <SCORE.INTER.VDW>
-11.9036

>  <SCORE.INTER.norm>
-0.536087

>  <SCORE.INTRA>
-1.36918

>  <SCORE.INTRA.DIHEDRAL>
-4.1608

>  <SCORE.INTRA.DIHEDRAL.0>
4.88619

>  <SCORE.INTRA.POLAR>
0

>  <SCORE.INTRA.POLAR.0>
0

>  <SCORE.INTRA.REPUL>
0

>  <SCORE.INTRA.REPUL.0>
0

>  <SCORE.INTRA.SOLV>
0.461593

>  <SCORE.INTRA.SOLV.lig_0>
-73.8187

>  <SCORE.INTRA.VDW>
0.480426

>  <SCORE.INTRA.VDW.0>
-1.32335

>  <SCORE.INTRA.norm>
-0.0622354

>  <SCORE.RESTR>
0

>  <SCORE.RESTR.CAVITY>
0

>  <SCORE.RESTR.norm>
0

>  <SCORE.SYSTEM>
0

>  <SCORE.SYSTEM.CONST>
0

>  <SCORE.SYSTEM.DIHEDRAL>
0

>  <SCORE.SYSTEM.SOLV>
0

>  <SCORE.SYSTEM.norm>
0

>  <SCORE.heavy>
22

>  <SCORE.norm>
-0.598322

>  <RMSD>
6.502

$$$$
2fcx_lig
 OpenBabel11021811433D
libRbt.so/2013.1/901 2013/11/27
 22 23  0  0  0  0  0  0  0  0999 V2000
   26.1164    7.1334   17.7779 N   0  0  0  0  0  0  0  0  0  0  0  0
   25.0033   10.2397   14.1467 N   0  0  0  0  0  0  0  0  0  0  0  0
   27.9698    7.9403    9.0634 N   0  0  0  0  0  0  0  0  0  0  0  0
   29.4173    8.2010   14.3453 O   0  0  0  0  0  0  0  0  0  0  0  0
   28.3527    8.7342   15.1376 C   0  0  2  0  0  0  0  0  0  0  0  0
   29.7125   12.3638   12.7222 N   0  0  0  0  0  0  0  0  0  0  0  0
   28.8867    7.2983   16.9846 O   0  0  0  0  0  0  0  0  0  0  0  0
   27.8254    7.6618   16.0938 C   0  0  1  0  0  0  0  0  0  0  0  0
   27.7492   10.4102   13.4768 O   0  0  0  0  0  0  0  0  0  0  0  0
   26.6384    8.1920   16.9014 C   0  0  1  0  0  0  0  0  0  0  0  0
   28.3238    9.0761   11.6379 O   0  0  0  0  0  0  0  0  0  0  0  0
   25.5207    8.6674   15.9670 C   0  0  0  0  0  0  0  0  0  0  0  0
   26.5270   11.2432    9.2386 O   0  0  0  0  0  0  0  0  0  0  0  0
   26.0607    9.7716   15.0538 C   0  0  1  0  0  0  0  0  0  0  0  0
   28.5566   12.9873   10.1709 O   0  0  0  0  0  0  0  0  0  0  0  0
   27.2525    9.2866   14.2231 C   0  0  2  0  0  0  0  0  0  0  0  0
   28.8047   10.0702   12.5613 C   0  0  1  0  0  0  0  0  0  0  0  0
   27.2351    9.5249   10.8060 C   0  0  2  0  0  0  0  0  0  0  0  0
   26.8133    8.4206    9.8342 C   0  0  0  0  0  0  0  0  0  0  0  0
   27.6424   10.7551    9.9904 C   0  0  2  0  0  0  0  0  0  0  0  0
   28.1170   11.8618   10.9335 C   0  0  1  0  0  0  0  0  0  0  0  0
   29.2600   11.3181   11.7949 C   0  0  1  0  0  0  0  0  0  0  0  0
  5  4  1  6  0  0  0
  5  8  1  0  0  0  0
  5 16  1  0  0  0  0
  8  7  1  1  0  0  0
  8 10  1  0  0  0  0
 10  1  1  1  0  0  0
 10 12  1  0  0  0  0
 11 18  1  0  0  0  0
 12 14  1  0  0  0  0
 14  2  1  6  0  0  0
 14 16  1  0  0  0  0
 16  9  1  1  0  0  0
 17  9  1  1  0  0  0
 17 11  1  0  0  0  0
 17 22  1  0  0  0  0
 18 19  1  6  0  0  0
 18 20  1  0  0  0  0
 19  3  1  0  0  0  0
 20 13  1  1  0  0  0
 20 21  1  0  0  0  0
 21 15  1  6  0  0  0
 21 22  1  0  0  0  0
 22  6  1  1  0  0  0
M  END
>  <CHROM.1>
64.60934428,58.51329620,-53.93979080,27.64725642,9.60458152,13.10424679,1.75029916
0.88932528,1.85899462

>  <Name>
2fcx_lig

>  <RI>
3.23342e+07

>  <Rbt.Current_Directory>
/home/itssahil/PROJECTS/Mol_Feturizer/New_Systems/rnas/2fcx

>  <Rbt.Executable>
rbdock ($Id: //depot/dev/client3/rdock/2013.1/src/exe/rbdock.cxx#4 $)

>  <Rbt.Library>
libRbt.so (2013.1, Build901 2013/11/27)

>  <Rbt.Parameter_File>
/export/apps/rDock/src/rDock_2013.1_src/data/scripts/dock_solv.prm

>  <Rbt.Receptor>
prm/pocket_docking_5.prm

>  <SCORE>
-14.2915

>  <SCORE.INTER>
-13.1289

>  <SCORE.INTER.CONST>
1

>  <SCORE.INTER.POLAR>
-1.74714

>  <SCORE.INTER.ROT>
3

>  <SCORE.INTER.SOLV>
15.0263

>  <SCORE.INTER.VDW>
-13.5376

>  <SCORE.INTER.norm>
-0.59677

>  <SCORE.INTRA>
-1.16259

>  <SCORE.INTRA.DIHEDRAL>
-4.63399

>  <SCORE.INTRA.DIHEDRAL.0>
4.88619

>  <SCORE.INTRA.POLAR>
0

>  <SCORE.INTRA.POLAR.0>
0

>  <SCORE.INTRA.REPUL>
0

>  <SCORE.INTRA.REPUL.0>
0

>  <SCORE.INTRA.SOLV>
0.316199

>  <SCORE.INTRA.SOLV.lig_0>
-73.8187

>  <SCORE.INTRA.VDW>
0.996304

>  <SCORE.INTRA.VDW.0>
-1.32335

>  <SCORE.INTRA.norm>
-0.0528451

>  <SCORE.RESTR>
0

>  <SCORE.RESTR.CAVITY>
0

>  <SCORE.RESTR.norm>
0

>  <SCORE.SYSTEM>
0

>  <SCORE.SYSTEM.CONST>
0

>  <SCORE.SYSTEM.DIHEDRAL>
0

>  <SCORE.SYSTEM.SOLV>
0

>  <SCORE.SYSTEM.norm>
0

>  <SCORE.heavy>
22

>  <SCORE.norm>
-0.649615

>  <RMSD>
6.521

$$$$
2fcx_lig
 OpenBabel11021811433D
libRbt.so/2013.1/901 2013/11/27
 22 23  0  0  0  0  0  0  0  0999 V2000
   26.2434    7.0486   17.7482 N   0  0  0  0  0  0  0  0  0  0  0  0
   25.0074   10.2366   14.2291 N   0  0  0  0  0  0  0  0  0  0  0  0
   27.9808    8.0081    9.0156 N   0  0  0  0  0  0  0  0  0  0  0  0
   29.4171    8.1789   14.2170 O   0  0  0  0  0  0  0  0  0  0  0  0
   28.3853    8.6985   15.0602 C   0  0  2  0  0  0  0  0  0  0  0  0
   29.6691   12.3991   12.7390 N   0  0  0  0  0  0  0  0  0  0  0  0
   28.9825    7.2212   16.8544 O   0  0  0  0  0  0  0  0  0  0  0  0
   27.8899    7.6075   16.0123 C   0  0  1  0  0  0  0  0  0  0  0  0
   27.7268   10.4120   13.4598 O   0  0  0  0  0  0  0  0  0  0  0  0
   26.7365    8.1242   16.8754 C   0  0  1  0  0  0  0  0  0  0  0  0
   28.3177    9.1143   11.6001 O   0  0  0  0  0  0  0  0  0  0  0  0
   25.5863    8.6235   15.9944 C   0  0  0  0  0  0  0  0  0  0  0  0
   26.4993   11.3001    9.2343 O   0  0  0  0  0  0  0  0  0  0  0  0
   26.0962    9.7453   15.0854 C   0  0  1  0  0  0  0  0  0  0  0  0
   28.5087   13.0511   10.1968 O   0  0  0  0  0  0  0  0  0  0  0  0
   27.2538    9.2743   14.2000 C   0  0  2  0  0  0  0  0  0  0  0  0
   28.7868   10.0986   12.5400 C   0  0  1  0  0  0  0  0  0  0  0  0
   27.2248    9.5646   10.7744 C   0  0  2  0  0  0  0  0  0  0  0  0
   26.8161    8.4715    9.7845 C   0  0  0  0  0  0  0  0  0  0  0  0
   27.6193   10.8121    9.9793 C   0  0  2  0  0  0  0  0  0  0  0  0
   28.0809   11.9087   10.9407 C   0  0  1  0  0  0  0  0  0  0  0  0
   29.2289   11.3636   11.7944 C   0  0  1  0  0  0  0  0  0  0  0  0
  5  4  1  6  0  0  0
  5  8  1  0  0  0  0
  5 16  1  0  0  0  0
  8  7  1  1  0  0  0
  8 10  1  0  0  0  0
 10  1  1  1  0  0  0
 10 12  1  0  0  0  0
 11 18  1  0  0  0  0
 12 14  1  0  0  0  0
 14  2  1  6  0  0  0
 14 16  1  0  0  0  0
 16  9  1  1  0  0  0
 17  9  1  1  0  0  0
 17 11  1  0  0  0  0
 17 22  1  0  0  0  0
 18 19  1  6  0  0  0
 18 20  1  0  0  0  0
 19  3  1  0  0  0  0
 20 13  1  1  0  0  0
 20 21  1  0  0  0  0
 21 15  1  6  0  0  0
 21 22  1  0  0  0  0
 22  6  1  1  0  0  0
M  END
>  <CHROM.1>
62.01011979,59.28686805,-53.43575695,27.65912035,9.60964785,13.07936948,1.76241472
1.02251104,1.85122243

>  <Name>
2fcx_lig

>  <RI>
3.23342e+07

>  <Rbt.Current_Directory>
/home/itssahil/PROJECTS/Mol_Feturizer/New_Systems/rnas/2fcx

>  <Rbt.Executable>
rbdock ($Id: //depot/dev/client3/rdock/2013.1/src/exe/rbdock.cxx#4 $)

>  <Rbt.Library>
libRbt.so (2013.1, Build901 2013/11/27)

>  <Rbt.Parameter_File>
/export/apps/rDock/src/rDock_2013.1_src/data/scripts/dock_solv.prm

>  <Rbt.Receptor>
prm/pocket_docking_5.prm

>  <SCORE>
-14.2431

>  <SCORE.INTER>
-13.3282

>  <SCORE.INTER.CONST>
1

>  <SCORE.INTER.POLAR>
-1.81029

>  <SCORE.INTER.ROT>
3

>  <SCORE.INTER.SOLV>
15.0364

>  <SCORE.INTER.VDW>
-13.4633

>  <SCORE.INTER.norm>
-0.605828

>  <SCORE.INTRA>
-0.914888

>  <SCORE.INTRA.DIHEDRAL>
-4.70449

>  <SCORE.INTRA.DIHEDRAL.0>
4.88619

>  <SCORE.INTRA.POLAR>
0

>  <SCORE.INTRA.POLAR.0>
0

>  <SCORE.INTRA.REPUL>
0

>  <SCORE.INTRA.REPUL.0>
0

>  <SCORE.INTRA.SOLV>
0.279077

>  <SCORE.INTRA.SOLV.lig_0>
-73.8187

>  <SCORE.INTRA.VDW>
1.29782

>  <SCORE.INTRA.VDW.0>
-1.32335

>  <SCORE.INTRA.norm>
-0.0415858

>  <SCORE.RESTR>
0

>  <SCORE.RESTR.CAVITY>
0

>  <SCORE.RESTR.norm>
0

>  <SCORE.SYSTEM>
0

>  <SCORE.SYSTEM.CONST>
0

>  <SCORE.SYSTEM.DIHEDRAL>
0

>  <SCORE.SYSTEM.SOLV>
0

>  <SCORE.SYSTEM.norm>
0

>  <SCORE.heavy>
22

>  <SCORE.norm>
-0.647414

>  <RMSD>
6.521

$$$$
2fcx_lig
 OpenBabel11021811433D
libRbt.so/2013.1/901 2013/11/27
 22 23  0  0  0  0  0  0  0  0999 V2000
   26.2005    7.1046   17.7814 N   0  0  0  0  0  0  0  0  0  0  0  0
   25.0293   10.2575   14.2090 N   0  0  0  0  0  0  0  0  0  0  0  0
   27.8733    8.0091    9.0264 N   0  0  0  0  0  0  0  0  0  0  0  0
   29.4294    8.1805   14.2835 O   0  0  0  0  0  0  0  0  0  0  0  0
   28.3881    8.7143   15.1058 C   0  0  2  0  0  0  0  0  0  0  0  0
   29.7373   12.3519   12.7223 N   0  0  0  0  0  0  0  0  0  0  0  0
   28.9528    7.2550   16.9251 O   0  0  0  0  0  0  0  0  0  0  0  0
   27.8741    7.6364   16.0631 C   0  0  1  0  0  0  0  0  0  0  0  0
   27.7602   10.4123   13.4768 O   0  0  0  0  0  0  0  0  0  0  0  0
   26.7109    8.1679   16.9037 C   0  0  1  0  0  0  0  0  0  0  0  0
   28.2847    9.1029   11.6054 O   0  0  0  0  0  0  0  0  0  0  0  0
   25.5757    8.6622   16.0007 C   0  0  0  0  0  0  0  0  0  0  0  0
   26.4776   11.3361    9.2754 O   0  0  0  0  0  0  0  0  0  0  0  0
   26.1036    9.7713   15.0863 C   0  0  1  0  0  0  0  0  0  0  0  0
   28.5468   13.0358   10.2025 O   0  0  0  0  0  0  0  0  0  0  0  0
   27.2715    9.2852   14.2231 C   0  0  2  0  0  0  0  0  0  0  0  0
   28.7951   10.0741   12.5374 C   0  0  1  0  0  0  0  0  0  0  0  0
   27.1883    9.5811   10.8004 C   0  0  2  0  0  0  0  0  0  0  0  0
   26.7347    8.4999    9.8170 C   0  0  0  0  0  0  0  0  0  0  0  0
   27.5987   10.8197    9.9993 C   0  0  2  0  0  0  0  0  0  0  0  0
   28.1047   11.9032   10.9530 C   0  0  1  0  0  0  0  0  0  0  0  0
   29.2545   11.3289   11.7850 C   0  0  1  0  0  0  0  0  0  0  0  0
  5  4  1  6  0  0  0
  5  8  1  0  0  0  0
  5 16  1  0  0  0  0
  8  7  1  1  0  0  0
  8 10  1  0  0  0  0
 10  1  1  1  0  0  0
 10 12  1  0  0  0  0
 11 18  1  0  0  0  0
 12 14  1  0  0  0  0
 14  2  1  6  0  0  0
 14 16  1  0  0  0  0
 16  9  1  1  0  0  0
 17  9  1  1  0  0  0
 17 11  1  0  0  0  0
 17 22  1  0  0  0  0
 18 19  1  6  0  0  0
 18 20  1  0  0  0  0
 19  3  1  0  0  0  0
 20 13  1  1  0  0  0
 20 21  1  0  0  0  0
 21 15  1  6  0  0  0
 21 22  1  0  0  0  0
 22  6  1  1  0  0  0
M  END
>  <CHROM.1>
64.35969337,59.19588773,-53.43923963,27.65167817,9.61993869,13.10027108,1.72252119
0.86721376,1.89355551

>  <Name>
2fcx_lig

>  <RI>
0

>  <Rbt.Current_Directory>
/home/itssahil/PROJECTS/Mol_Feturizer/New_Systems/rnas/2fcx

>  <Rbt.Executable>
rbdock ($Id: //depot/dev/client3/rdock/2013.1/src/exe/rbdock.cxx#4 $)

>  <Rbt.Library>
libRbt.so (2013.1, Build901 2013/11/27)

>  <Rbt.Parameter_File>
/export/apps/rDock/src/rDock_2013.1_src/data/scripts/dock_solv.prm

>  <Rbt.Receptor>
prm/pocket_docking_6.prm

>  <SCORE>
-14.3495

>  <SCORE.INTER>
-13.215

>  <SCORE.INTER.CONST>
1

>  <SCORE.INTER.POLAR>
-1.78271

>  <SCORE.INTER.ROT>
3

>  <SCORE.INTER.SOLV>
14.7336

>  <SCORE.INTER.VDW>
-13.3788

>  <SCORE.INTER.norm>
-0.600682

>  <SCORE.INTRA>
-1.13455

>  <SCORE.INTRA.DIHEDRAL>
-4.63052

>  <SCORE.INTRA.DIHEDRAL.0>
4.88619

>  <SCORE.INTRA.POLAR>
0

>  <SCORE.INTRA.POLAR.0>
0

>  <SCORE.INTRA.REPUL>
0

>  <SCORE.INTRA.REPUL.0>
0

>  <SCORE.INTRA.SOLV>
0.308244

>  <SCORE.INTRA.SOLV.lig_0>
-73.8187

>  <SCORE.INTRA.VDW>
1.02658

>  <SCORE.INTRA.VDW.0>
-1.32335

>  <SCORE.INTRA.norm>
-0.0515705

>  <SCORE.RESTR>
0

>  <SCORE.RESTR.CAVITY>
0

>  <SCORE.RESTR.norm>
0

>  <SCORE.SYSTEM>
0

>  <SCORE.SYSTEM.CONST>
0

>  <SCORE.SYSTEM.DIHEDRAL>
0

>  <SCORE.SYSTEM.SOLV>
0

>  <SCORE.SYSTEM.norm>
0

>  <SCORE.heavy>
22

>  <SCORE.norm>
-0.652252

>  <RMSD>
6.522

$$$$
2fcx_lig
 OpenBabel11021811433D
libRbt.so/2013.1/901 2013/11/27
 22 23  0  0  0  0  0  0  0  0999 V2000
   26.2174    7.0979   17.7922 N   0  0  0  0  0  0  0  0  0  0  0  0
   25.0351   10.1901   14.1707 N   0  0  0  0  0  0  0  0  0  0  0  0
   27.8477    7.9696    9.0233 N   0  0  0  0  0  0  0  0  0  0  0  0
   29.4634    8.1776   14.3113 O   0  0  0  0  0  0  0  0  0  0  0  0
   28.4069    8.7063   15.1174 C   0  0  2  0  0  0  0  0  0  0  0  0
   29.7561   12.3056   12.7064 N   0  0  0  0  0  0  0  0  0  0  0  0
   28.9753    7.2774   16.9595 O   0  0  0  0  0  0  0  0  0  0  0  0
   27.8994    7.6328   16.0830 C   0  0  1  0  0  0  0  0  0  0  0  0
   27.7703   10.3752   13.4619 O   0  0  0  0  0  0  0  0  0  0  0  0
   26.7208    8.1577   16.9062 C   0  0  1  0  0  0  0  0  0  0  0  0
   28.2753    9.0725   11.5806 O   0  0  0  0  0  0  0  0  0  0  0  0
   25.5873    8.6247   15.9868 C   0  0  0  0  0  0  0  0  0  0  0  0
   26.4700   11.3302    9.2730 O   0  0  0  0  0  0  0  0  0  0  0  0
   26.1079    9.7301   15.0638 C   0  0  1  0  0  0  0  0  0  0  0  0
   28.5559   13.0110   10.1972 O   0  0  0  0  0  0  0  0  0  0  0  0
   27.2907    9.2503   14.2174 C   0  0  2  0  0  0  0  0  0  0  0  0
   28.7975   10.0352   12.5149 C   0  0  1  0  0  0  0  0  0  0  0  0
   27.1775    9.5623   10.7844 C   0  0  2  0  0  0  0  0  0  0  0  0
   26.7111    8.4894    9.7980 C   0  0  0  0  0  0  0  0  0  0  0  0
   27.5917   10.8024    9.9876 C   0  0  2  0  0  0  0  0  0  0  0  0
   28.1104   11.8773   10.9442 C   0  0  1  0  0  0  0  0  0  0  0  0
   29.2611   11.2909   11.7664 C   0  0  1  0  0  0  0  0  0  0  0  0
  5  4  1  6  0  0  0
  5  8  1  0  0  0  0
  5 16  1  0  0  0  0
  8  7  1  1  0  0  0
  8 10  1  0  0  0  0
 10  1  1  1  0  0  0
 10 12  1  0  0  0  0
 11 18  1  0  0  0  0
 12 14  1  0  0  0  0
 14  2  1  6  0  0  0
 14 16  1  0  0  0  0
 16  9  1  1  0  0  0
 17  9  1  1  0  0  0
 17 11  1  0  0  0  0
 17 22  1  0  0  0  0
 18 19  1  6  0  0  0
 18 20  1  0  0  0  0
 19  3  1  0  0  0  0
 20 13  1  1  0  0  0
 20 21  1  0  0  0  0
 21 15  1  6  0  0  0
 21 22  1  0  0  0  0
 22  6  1  1  0  0  0
M  END
>  <CHROM.1>
65.69497991,59.96995803,-51.92407898,27.65800401,9.59654793,13.09443218,1.70369595
0.79605592,1.91073646

>  <Name>
2fcx_lig

>  <RI>
1.15031e+07

>  <Rbt.Current_Directory>
/home/itssahil/PROJECTS/Mol_Feturizer/New_Systems/rnas/2fcx

>  <Rbt.Executable>
rbdock ($Id: //depot/dev/client3/rdock/2013.1/src/exe/rbdock.cxx#4 $)

>  <Rbt.Library>
libRbt.so (2013.1, Build901 2013/11/27)

>  <Rbt.Parameter_File>
/export/apps/rDock/src/rDock_2013.1_src/data/scripts/dock_solv.prm

>  <Rbt.Receptor>
prm/pocket_docking_8.prm

>  <SCORE>
-14.2813

>  <SCORE.INTER>
-13.0741

>  <SCORE.INTER.CONST>
1

>  <SCORE.INTER.POLAR>
-1.74701

>  <SCORE.INTER.ROT>
3

>  <SCORE.INTER.SOLV>
14.5366

>  <SCORE.INTER.VDW>
-13.3382

>  <SCORE.INTER.norm>
-0.594278

>  <SCORE.INTRA>
-1.20724

>  <SCORE.INTRA.DIHEDRAL>
-4.49091

>  <SCORE.INTRA.DIHEDRAL.0>
4.88619

>  <SCORE.INTRA.POLAR>
0

>  <SCORE.INTRA.POLAR.0>
0

>  <SCORE.INTRA.REPUL>
0

>  <SCORE.INTRA.REPUL.0>
0

>  <SCORE.INTRA.SOLV>
0.320668

>  <SCORE.INTRA.SOLV.lig_0>
-73.8187

>  <SCORE.INTRA.VDW>
0.877885

>  <SCORE.INTRA.VDW.0>
-1.32335

>  <SCORE.INTRA.norm>
-0.0548745

>  <SCORE.RESTR>
0

>  <SCORE.RESTR.CAVITY>
0

>  <SCORE.RESTR.norm>
0

>  <SCORE.SYSTEM>
0

>  <SCORE.SYSTEM.CONST>
0

>  <SCORE.SYSTEM.DIHEDRAL>
0

>  <SCORE.SYSTEM.SOLV>
0

>  <SCORE.SYSTEM.norm>
0

>  <SCORE.heavy>
22

>  <SCORE.norm>
-0.649152

>  <RMSD>
6.528

$$$$
2fcx_lig
 OpenBabel11021811433D
libRbt.so/2013.1/901 2013/11/27
 22 23  0  0  0  0  0  0  0  0999 V2000
   26.1166    7.1681   17.8003 N   0  0  0  0  0  0  0  0  0  0  0  0
   25.0242   10.2984   14.1833 N   0  0  0  0  0  0  0  0  0  0  0  0
   27.8931    8.0770    9.0139 N   0  0  0  0  0  0  0  0  0  0  0  0
   29.4093    8.1950   14.3474 O   0  0  0  0  0  0  0  0  0  0  0  0
   28.3580    8.7420   15.1481 C   0  0  2  0  0  0  0  0  0  0  0  0
   29.8020   12.3292   12.7908 N   0  0  0  0  0  0  0  0  0  0  0  0
   28.8835    7.2943   16.9883 O   0  0  0  0  0  0  0  0  0  0  0  0
   27.8216    7.6752   16.1056 C   0  0  1  0  0  0  0  0  0  0  0  0
   27.7677   10.4302   13.4950 O   0  0  0  0  0  0  0  0  0  0  0  0
   26.6480    8.2210   16.9224 C   0  0  1  0  0  0  0  0  0  0  0  0
   28.2911    9.1263   11.6195 O   0  0  0  0  0  0  0  0  0  0  0  0
   25.5310    8.7147   15.9968 C   0  0  0  0  0  0  0  0  0  0  0  0
   26.5749   11.4235    9.2831 O   0  0  0  0  0  0  0  0  0  0  0  0
   26.0808    9.8129   15.0822 C   0  0  1  0  0  0  0  0  0  0  0  0
   28.6686   13.0648   10.2592 O   0  0  0  0  0  0  0  0  0  0  0  0
   27.2597    9.3124   14.2423 C   0  0  2  0  0  0  0  0  0  0  0  0
   28.8092   10.0763   12.5689 C   0  0  1  0  0  0  0  0  0  0  0  0
   27.2193    9.6380   10.8019 C   0  0  2  0  0  0  0  0  0  0  0  0
   26.7561    8.5770    9.8011 C   0  0  0  0  0  0  0  0  0  0  0  0
   27.6718   10.8739   10.0195 C   0  0  2  0  0  0  0  0  0  0  0  0
   28.1878   11.9361   10.9916 C   0  0  1  0  0  0  0  0  0  0  0  0
   29.3102   11.3268   11.8360 C   0  0  1  0  0  0  0  0  0  0  0  0
  5  4  1  6  0  0  0
  5  8  1  0  0  0  0
  5 16  1  0  0  0  0
  8  7  1  1  0  0  0
  8 10  1  0  0  0  0
 10  1  1  1  0  0  0
 10 12  1  0  0  0  0
 11 18  1  0  0  0  0
 12 14  1  0  0  0  0
 14  2  1  6  0  0  0
 14 16  1  0  0  0  0
 16  9  1  1  0  0  0
 17  9  1  1  0  0  0
 17 11  1  0  0  0  0
 17 22  1  0  0  0  0
 18 19  1  6  0  0  0
 18 20  1  0  0  0  0
 19  3  1  0  0  0  0
 20 13  1  1  0  0  0
 20 21  1  0  0  0  0
 21 15  1  6  0  0  0
 21 22  1  0  0  0  0
 22  6  1  1  0  0  0
M  END
>  <CHROM.1>
64.77350530,60.40835840,-54.04195712,27.66106185,9.65740938,13.12409585,1.73615299
0.80136274,1.88785417

>  <Name>
2fcx_lig

>  <RI>
0

>  <Rbt.Current_Directory>
/home/itssahil/PROJECTS/Mol_Feturizer/New_Systems/rnas/2fcx

>  <Rbt.Executable>
rbdock ($Id: //depot/dev/client3/rdock/2013.1/src/exe/rbdock.cxx#4 $)

>  <Rbt.Library>
libRbt.so (2013.1, Build901 2013/11/27)

>  <Rbt.Parameter_File>
/export/apps/rDock/src/rDock_2013.1_src/data/scripts/dock_solv.prm

>  <Rbt.Receptor>
prm/pocket_docking_6.prm

>  <SCORE>
-14.246

>  <SCORE.INTER>
-13.0765

>  <SCORE.INTER.CONST>
1

>  <SCORE.INTER.POLAR>
-1.73802

>  <SCORE.INTER.ROT>
3

>  <SCORE.INTER.SOLV>
14.8999

>  <SCORE.INTER.VDW>
-13.4909

>  <SCORE.INTER.norm>
-0.594387

>  <SCORE.INTRA>
-1.16943

>  <SCORE.INTRA.DIHEDRAL>
-4.64085

>  <SCORE.INTRA.DIHEDRAL.0>
4.88619

>  <SCORE.INTRA.POLAR>
0

>  <SCORE.INTRA.POLAR.0>
0

>  <SCORE.INTRA.REPUL>
0

>  <SCORE.INTRA.REPUL.0>
0

>  <SCORE.INTRA.SOLV>
0.331079

>  <SCORE.INTRA.SOLV.lig_0>
-73.8187

>  <SCORE.INTRA.VDW>
0.985458

>  <SCORE.INTRA.VDW.0>
-1.32335

>  <SCORE.INTRA.norm>
-0.0531558

>  <SCORE.RESTR>
0

>  <SCORE.RESTR.CAVITY>
0

>  <SCORE.RESTR.norm>
0

>  <SCORE.SYSTEM>
0

>  <SCORE.SYSTEM.CONST>
0

>  <SCORE.SYSTEM.DIHEDRAL>
0

>  <SCORE.SYSTEM.SOLV>
0

>  <SCORE.SYSTEM.norm>
0

>  <SCORE.heavy>
22

>  <SCORE.norm>
-0.647543

>  <RMSD>
6.536

$$$$
2fcx_lig
 OpenBabel11021811433D
libRbt.so/2013.1/901 2013/11/27
 22 23  0  0  0  0  0  0  0  0999 V2000
   26.1956    7.1057   17.7212 N   0  0  0  0  0  0  0  0  0  0  0  0
   24.9999   10.2404   14.1408 N   0  0  0  0  0  0  0  0  0  0  0  0
   27.9632    8.0045    8.9924 N   0  0  0  0  0  0  0  0  0  0  0  0
   29.4243    8.2165   14.2340 O   0  0  0  0  0  0  0  0  0  0  0  0
   28.3736    8.7386   15.0519 C   0  0  2  0  0  0  0  0  0  0  0  0
   29.6930   12.3954   12.6982 N   0  0  0  0  0  0  0  0  0  0  0  0
   28.9490    7.2882   16.8749 O   0  0  0  0  0  0  0  0  0  0  0  0
   27.8690    7.6557   16.0085 C   0  0  1  0  0  0  0  0  0  0  0  0
   27.7314   10.4271   13.4186 O   0  0  0  0  0  0  0  0  0  0  0  0
   26.6964    8.1742   16.8441 C   0  0  1  0  0  0  0  0  0  0  0  0
   28.3081    9.1253   11.5572 O   0  0  0  0  0  0  0  0  0  0  0  0
   25.5587    8.6538   15.9363 C   0  0  0  0  0  0  0  0  0  0  0  0
   26.5099   11.3314    9.1948 O   0  0  0  0  0  0  0  0  0  0  0  0
   26.0766    9.7681   15.0227 C   0  0  1  0  0  0  0  0  0  0  0  0
   28.5373   13.0614   10.1575 O   0  0  0  0  0  0  0  0  0  0  0  0
   27.2536    9.2951   14.1643 C   0  0  2  0  0  0  0  0  0  0  0  0
   28.7876   10.1040   12.4978 C   0  0  1  0  0  0  0  0  0  0  0  0
   27.2191    9.5873   10.7328 C   0  0  2  0  0  0  0  0  0  0  0  0
   26.7989    8.4993    9.7421 C   0  0  0  0  0  0  0  0  0  0  0  0
   27.6255   10.8316    9.9385 C   0  0  2  0  0  0  0  0  0  0  0  0
   28.0987   11.9225   10.9006 C   0  0  1  0  0  0  0  0  0  0  0  0
   29.2419   11.3652   11.7529 C   0  0  1  0  0  0  0  0  0  0  0  0
  5  4  1  6  0  0  0
  5  8  1  0  0  0  0
  5 16  1  0  0  0  0
  8  7  1  1  0  0  0
  8 10  1  0  0  0  0
 10  1  1  1  0  0  0
 10 12  1  0  0  0  0
 11 18  1  0  0  0  0
 12 14  1  0  0  0  0
 14  2  1  6  0  0  0
 14 16  1  0  0  0  0
 16  9  1  1  0  0  0
 17  9  1  1  0  0  0
 17 11  1  0  0  0  0
 17 22  1  0  0  0  0
 18 19  1  6  0  0  0
 18 20  1  0  0  0  0
 19  3  1  0  0  0  0
 20 13  1  1  0  0  0
 20 21  1  0  0  0  0
 21 15  1  6  0  0  0
 21 22  1  0  0  0  0
 22  6  1  1  0  0  0
M  END
>  <CHROM.1>
63.48158559,59.66680625,-52.21091387,27.65277066,9.63384636,13.04564811,1.74223581
0.92246288,1.87262661

>  <Name>
2fcx_lig

>  <RI>
3.23342e+07

>  <Rbt.Current_Directory>
/home/itssahil/PROJECTS/Mol_Feturizer/New_Systems/rnas/2fcx

>  <Rbt.Executable>
rbdock ($Id: //depot/dev/client3/rdock/2013.1/src/exe/rbdock.cxx#4 $)

>  <Rbt.Library>
libRbt.so (2013.1, Build901 2013/11/27)

>  <Rbt.Parameter_File>
/export/apps/rDock/src/rDock_2013.1_src/data/scripts/dock_solv.prm

>  <Rbt.Receptor>
prm/pocket_docking_5.prm

>  <SCORE>
-14.3424

>  <SCORE.INTER>
-13.2872

>  <SCORE.INTER.CONST>
1

>  <SCORE.INTER.POLAR>
-1.79457

>  <SCORE.INTER.ROT>
3

>  <SCORE.INTER.SOLV>
14.8453

>  <SCORE.INTER.VDW>
-13.4247

>  <SCORE.INTER.norm>
-0.603965

>  <SCORE.INTRA>
-1.05518

>  <SCORE.INTRA.DIHEDRAL>
-4.60539

>  <SCORE.INTRA.DIHEDRAL.0>
4.88619

>  <SCORE.INTRA.POLAR>
0

>  <SCORE.INTRA.POLAR.0>
0

>  <SCORE.INTRA.REPUL>
0

>  <SCORE.INTRA.REPUL.0>
0

>  <SCORE.INTRA.SOLV>
0.280341

>  <SCORE.INTRA.SOLV.lig_0>
-73.8187

>  <SCORE.INTRA.VDW>
1.10734

>  <SCORE.INTRA.VDW.0>
-1.32335

>  <SCORE.INTRA.norm>
-0.0479627

>  <SCORE.RESTR>
0

>  <SCORE.RESTR.CAVITY>
0

>  <SCORE.RESTR.norm>
0

>  <SCORE.SYSTEM>
0

>  <SCORE.SYSTEM.CONST>
0

>  <SCORE.SYSTEM.DIHEDRAL>
0

>  <SCORE.SYSTEM.SOLV>
0

>  <SCORE.SYSTEM.norm>
0

>  <SCORE.heavy>
22

>  <SCORE.norm>
-0.651928

>  <RMSD>
6.539

$$$$
2fcx_lig
 OpenBabel11021811433D
libRbt.so/2013.1/901 2013/11/27
 22 23  0  0  0  0  0  0  0  0999 V2000
   25.9787    7.2272   17.6172 N   0  0  0  0  0  0  0  0  0  0  0  0
   24.9492   10.5801   14.1861 N   0  0  0  0  0  0  0  0  0  0  0  0
   26.0016    7.6650   10.4341 N   0  0  0  0  0  0  0  0  0  0  0  0
   29.2324    8.2711   14.1326 O   0  0  0  0  0  0  0  0  0  0  0  0
   28.2277    8.8256   14.9862 C   0  0  2  0  0  0  0  0  0  0  0  0
   29.7190   12.5056   12.7130 N   0  0  0  0  0  0  0  0  0  0  0  0
   28.7282    7.2658   16.7397 O   0  0  0  0  0  0  0  0  0  0  0  0
   27.6645    7.7386   15.9047 C   0  0  1  0  0  0  0  0  0  0  0  0
   27.6785   10.6192   13.4329 O   0  0  0  0  0  0  0  0  0  0  0  0
   26.5382    8.2967   16.7776 C   0  0  1  0  0  0  0  0  0  0  0  0
   28.1504    9.3348   11.5304 O   0  0  0  0  0  0  0  0  0  0  0  0
   25.4239    8.8868   15.9068 C   0  0  0  0  0  0  0  0  0  0  0  0
   26.4132   11.6809    9.2590 O   0  0  0  0  0  0  0  0  0  0  0  0
   26.0029   10.0024   15.0322 C   0  0  1  0  0  0  0  0  0  0  0  0
   28.5436   13.2867   10.2144 O   0  0  0  0  0  0  0  0  0  0  0  0
   27.1363    9.4903   14.1384 C   0  0  2  0  0  0  0  0  0  0  0  0
   28.6975   10.2666   12.4816 C   0  0  1  0  0  0  0  0  0  0  0  0
   27.0682    9.8686   10.7412 C   0  0  2  0  0  0  0  0  0  0  0  0
   26.5737    8.8260    9.7361 C   0  0  0  0  0  0  0  0  0  0  0  0
   27.5184   11.1099    9.9661 C   0  0  2  0  0  0  0  0  0  0  0  0
   28.0652   12.1535   10.9415 C   0  0  1  0  0  0  0  0  0  0  0  0
   29.1975   11.5212   11.7552 C   0  0  1  0  0  0  0  0  0  0  0  0
  5  4  1  6  0  0  0
  5  8  1  0  0  0  0
  5 16  1  0  0  0  0
  8  7  1  1  0  0  0
  8 10  1  0  0  0  0
 10  1  1  6  0  0  0
 10 12  1  0  0  0  0
 11 18  1  0  0  0  0
 12 14  1  0  0  0  0
 14  2  1  6  0  0  0
 14 16  1  0  0  0  0
 16  9  1  1  0  0  0
 17  9  1  1  0  0  0
 17 11  1  0  0  0  0
 17 22  1  0  0  0  0
 18 19  1  6  0  0  0
 18 20  1  0  0  0  0
 19  3  1  0  0  0  0
 20 13  1  1  0  0  0
 20 21  1  0  0  0  0
 21 15  1  6  0  0  0
 21 22  1  0  0  0  0
 22  6  1  1  0  0  0
M  END
>  <CHROM.1>
63.66202539,58.10515501,64.08734472,27.45299325,9.79846699,13.09261423,1.71248254
0.71068410,1.98690293

>  <Name>
2fcx_lig

>  <RI>
1.55453e+07

>  <Rbt.Current_Directory>
/home/itssahil/PROJECTS/Mol_Feturizer/New_Systems/rnas/2fcx

>  <Rbt.Executable>
rbdock ($Id: //depot/dev/client3/rdock/2013.1/src/exe/rbdock.cxx#4 $)

>  <Rbt.Library>
libRbt.so (2013.1, Build901 2013/11/27)

>  <Rbt.Parameter_File>
/export/apps/rDock/src/rDock_2013.1_src/data/scripts/dock_solv.prm

>  <Rbt.Receptor>
prm/pocket_docking_4.prm

>  <SCORE>
-11.2271

>  <SCORE.INTER>
-9.45046

>  <SCORE.INTER.CONST>
1

>  <SCORE.INTER.POLAR>
-1.11713

>  <SCORE.INTER.ROT>
3

>  <SCORE.INTER.SOLV>
12.9628

>  <SCORE.INTER.VDW>
-12.4975

>  <SCORE.INTER.norm>
-0.429566

>  <SCORE.INTRA>
-1.77665

>  <SCORE.INTRA.DIHEDRAL>
-4.7359

>  <SCORE.INTRA.DIHEDRAL.0>
4.88619

>  <SCORE.INTRA.POLAR>
0

>  <SCORE.INTRA.POLAR.0>
0

>  <SCORE.INTRA.REPUL>
0

>  <SCORE.INTRA.REPUL.0>
0

>  <SCORE.INTRA.SOLV>
-0.908851

>  <SCORE.INTRA.SOLV.lig_0>
-73.8187

>  <SCORE.INTRA.VDW>
1.04572

>  <SCORE.INTRA.VDW.0>
-1.32335

>  <SCORE.INTRA.norm>
-0.080757

>  <SCORE.RESTR>
0

>  <SCORE.RESTR.CAVITY>
0

>  <SCORE.RESTR.norm>
0

>  <SCORE.SYSTEM>
0

>  <SCORE.SYSTEM.CONST>
0

>  <SCORE.SYSTEM.DIHEDRAL>
0

>  <SCORE.SYSTEM.SOLV>
0

>  <SCORE.SYSTEM.norm>
0

>  <SCORE.heavy>
22

>  <SCORE.norm>
-0.510323

>  <RMSD>
6.540

$$$$
2fcx_lig
 OpenBabel11021811433D
libRbt.so/2013.1/901 2013/11/27
 22 23  0  0  0  0  0  0  0  0999 V2000
   26.1394    7.1405   17.8243 N   0  0  0  0  0  0  0  0  0  0  0  0
   25.0691   10.1012   14.0609 N   0  0  0  0  0  0  0  0  0  0  0  0
   28.0286    7.8401    9.0474 N   0  0  0  0  0  0  0  0  0  0  0  0
   29.4992    8.1202   14.4226 O   0  0  0  0  0  0  0  0  0  0  0  0
   28.4129    8.6698   15.1733 C   0  0  2  0  0  0  0  0  0  0  0  0
   29.9023   12.1489   12.7848 N   0  0  0  0  0  0  0  0  0  0  0  0
   28.9236    7.3075   17.0816 O   0  0  0  0  0  0  0  0  0  0  0  0
   27.8772    7.6268   16.1569 C   0  0  1  0  0  0  0  0  0  0  0  0
   27.8263   10.2779   13.4409 O   0  0  0  0  0  0  0  0  0  0  0  0
   26.6684    8.1725   16.9206 C   0  0  1  0  0  0  0  0  0  0  0  0
   28.3725    8.9693   11.5752 O   0  0  0  0  0  0  0  0  0  0  0  0
   25.5652    8.6015   15.9472 C   0  0  0  0  0  0  0  0  0  0  0  0
   26.7407   11.2938    9.2055 O   0  0  0  0  0  0  0  0  0  0  0  0
   26.1124    9.6779   15.0056 C   0  0  1  0  0  0  0  0  0  0  0  0
   28.8354   12.9040   10.2302 O   0  0  0  0  0  0  0  0  0  0  0  0
   27.3261    9.1766   14.2173 C   0  0  2  0  0  0  0  0  0  0  0  0
   28.8830    9.9106   12.5374 C   0  0  1  0  0  0  0  0  0  0  0  0
   27.3263    9.4972   10.7351 C   0  0  2  0  0  0  0  0  0  0  0  0
   26.8704    8.4443    9.7225 C   0  0  0  0  0  0  0  0  0  0  0  0
   27.8132   10.7277    9.9649 C   0  0  2  0  0  0  0  0  0  0  0  0
   28.3227   11.7811   10.9499 C   0  0  1  0  0  0  0  0  0  0  0  0
   29.4175   11.1549   11.8178 C   0  0  1  0  0  0  0  0  0  0  0  0
  5  4  1  6  0  0  0
  5  8  1  0  0  0  0
  5 16  1  0  0  0  0
  8  7  1  1  0  0  0
  8 10  1  0  0  0  0
 10  1  1  1  0  0  0
 10 12  1  0  0  0  0
 11 18  1  0  0  0  0
 12 14  1  0  0  0  0
 14  2  1  6  0  0  0
 14 16  1  0  0  0  0
 16  9  1  1  0  0  0
 17  9  1  1  0  0  0
 17 11  1  0  0  0  0
 17 22  1  0  0  0  0
 18 19  1  6  0  0  0
 18 20  1  0  0  0  0
 19  3  1  0  0  0  0
 20 13  1  1  0  0  0
 20 21  1  0  0  0  0
 21 15  1  6  0  0  0
 21 22  1  0  0  0  0
 22  6  1  1  0  0  0
M  END
>  <CHROM.1>
65.97746961,62.97168720,-48.81007608,27.74583306,9.53203968,13.10316330,1.74117212
0.73467919,1.87258560

>  <Name>
2fcx_lig

>  <RI>
3.23342e+07

>  <Rbt.Current_Directory>
/home/itssahil/PROJECTS/Mol_Feturizer/New_Systems/rnas/2fcx

>  <Rbt.Executable>
rbdock ($Id: //depot/dev/client3/rdock/2013.1/src/exe/rbdock.cxx#4 $)

>  <Rbt.Library>
libRbt.so (2013.1, Build901 2013/11/27)

>  <Rbt.Parameter_File>
/export/apps/rDock/src/rDock_2013.1_src/data/scripts/dock_solv.prm

>  <Rbt.Receptor>
prm/pocket_docking_5.prm

>  <SCORE>
-14.133

>  <SCORE.INTER>
-13.0123

>  <SCORE.INTER.CONST>
1

>  <SCORE.INTER.POLAR>
-1.58539

>  <SCORE.INTER.ROT>
3

>  <SCORE.INTER.SOLV>
15.4107

>  <SCORE.INTER.VDW>
-14.1271

>  <SCORE.INTER.norm>
-0.591467

>  <SCORE.INTRA>
-1.12073

>  <SCORE.INTRA.DIHEDRAL>
-4.22566

>  <SCORE.INTRA.DIHEDRAL.0>
4.88619

>  <SCORE.INTRA.POLAR>
0

>  <SCORE.INTRA.POLAR.0>
0

>  <SCORE.INTRA.REPUL>
0

>  <SCORE.INTRA.REPUL.0>
0

>  <SCORE.INTRA.SOLV>
0.296291

>  <SCORE.INTRA.SOLV.lig_0>
-73.8187

>  <SCORE.INTRA.VDW>
0.843953

>  <SCORE.INTRA.VDW.0>
-1.32335

>  <SCORE.INTRA.norm>
-0.0509423

>  <SCORE.RESTR>
0

>  <SCORE.RESTR.CAVITY>
0

>  <SCORE.RESTR.norm>
0

>  <SCORE.SYSTEM>
0

>  <SCORE.SYSTEM.CONST>
0

>  <SCORE.SYSTEM.DIHEDRAL>
0

>  <SCORE.SYSTEM.SOLV>
0

>  <SCORE.SYSTEM.norm>
0

>  <SCORE.heavy>
22

>  <SCORE.norm>
-0.642409

>  <RMSD>
6.545

$$$$
2fcx_lig
 OpenBabel11021811433D
libRbt.so/2013.1/901 2013/11/27
 22 23  0  0  0  0  0  0  0  0999 V2000
   28.6628    8.8147   17.4251 N   0  0  0  0  0  0  0  0  0  0  0  0
   29.7495   11.2430   13.3024 N   0  0  0  0  0  0  0  0  0  0  0  0
   25.5762   13.0908   12.6657 N   0  0  0  0  0  0  0  0  0  0  0  0
   26.0894    8.0366   13.3519 O   0  0  0  0  0  0  0  0  0  0  0  0
   27.3966    8.3080   13.8649 C   0  0  2  0  0  0  0  0  0  0  0  0
   27.9756    8.1317    9.2897 N   0  0  0  0  0  0  0  0  0  0  0  0
   26.9633    7.0712   15.8751 O   0  0  0  0  0  0  0  0  0  0  0  0
   27.3569    8.3617   15.3940 C   0  0  1  0  0  0  0  0  0  0  0  0
   28.1246    9.4449   11.8380 O   0  0  0  0  0  0  0  0  0  0  0  0
   28.7329    8.7209   15.9595 C   0  0  1  0  0  0  0  0  0  0  0  0
   26.1696   10.6484   11.3676 O   0  0  0  0  0  0  0  0  0  0  0  0
   29.2152   10.0604   15.3927 C   0  0  0  0  0  0  0  0  0  0  0  0
   27.9048   12.9782    9.0779 O   0  0  0  0  0  0  0  0  0  0  0  0
   29.2911    9.9655   13.8663 C   0  0  1  0  0  0  0  0  0  0  0  0
   28.1892   10.5150    7.7060 O   0  0  0  0  0  0  0  0  0  0  0  0
   27.9339    9.6076   13.2533 C   0  0  2  0  0  0  0  0  0  0  0  0
   26.8965    9.4372   11.0901 C   0  0  1  0  0  0  0  0  0  0  0  0
   26.8521   11.8502   10.9567 C   0  0  2  0  0  0  0  0  0  0  0  0
   25.9946   13.0818   11.2560 C   0  0  0  0  0  0  0  0  0  0  0  0
   27.1492   11.8230    9.4550 C   0  0  2  0  0  0  0  0  0  0  0  0
   27.9650   10.5743    9.1158 C   0  0  1  0  0  0  0  0  0  0  0  0
   27.1941    9.3391    9.5889 C   0  0  1  0  0  0  0  0  0  0  0  0
  5  4  1  6  0  0  0
  5  8  1  0  0  0  0
  5 16  1  0  0  0  0
  8  7  1  1  0  0  0
  8 10  1  0  0  0  0
 10  1  1  1  0  0  0
 10 12  1  0  0  0  0
 11 18  1  0  0  0  0
 12 14  1  0  0  0  0
 14  2  1  6  0  0  0
 14 16  1  0  0  0  0
 16  9  1  6  0  0  0
 17  9  1  1  0  0  0
 17 11  1  0  0  0  0
 17 22  1  0  0  0  0
 18 19  1  6  0  0  0
 18 20  1  0  0  0  0
 19  3  1  0  0  0  0
 20 13  1  1  0  0  0
 20 21  1  0  0  0  0
 21 15  1  6  0  0  0
 21 22  1  0  0  0  0
 22  6  1  1  0  0  0
M  END
>  <CHROM.1>
74.26497231,56.16899841,53.15499436,27.59195926,10.04806681,12.29438152,0.46555834
-1.45754995,0.88088813

>  <Name>
2fcx_lig

>  <RI>
0

>  <Rbt.Current_Directory>
/home/itssahil/PROJECTS/Mol_Feturizer/New_Systems/rnas/2fcx

>  <Rbt.Executable>
rbdock ($Id: //depot/dev/client3/rdock/2013.1/src/exe/rbdock.cxx#4 $)

>  <Rbt.Library>
libRbt.so (2013.1, Build901 2013/11/27)

>  <Rbt.Parameter_File>
/export/apps/rDock/src/rDock_2013.1_src/data/scripts/dock_solv.prm

>  <Rbt.Receptor>
prm/pocket_docking_6.prm

>  <SCORE>
-11.2475

>  <SCORE.INTER>
-9.34082

>  <SCORE.INTER.CONST>
1

>  <SCORE.INTER.POLAR>
-1.63546

>  <SCORE.INTER.ROT>
3

>  <SCORE.INTER.SOLV>
10.3961

>  <SCORE.INTER.VDW>
-9.84103

>  <SCORE.INTER.norm>
-0.424583

>  <SCORE.INTRA>
-1.90665

>  <SCORE.INTRA.DIHEDRAL>
-3.67608

>  <SCORE.INTRA.DIHEDRAL.0>
4.88619

>  <SCORE.INTRA.POLAR>
0

>  <SCORE.INTRA.POLAR.0>
0

>  <SCORE.INTRA.REPUL>
0

>  <SCORE.INTRA.REPUL.0>
0

>  <SCORE.INTRA.SOLV>
-0.498598

>  <SCORE.INTRA.SOLV.lig_0>
-73.8187

>  <SCORE.INTRA.VDW>
0.180687

>  <SCORE.INTRA.VDW.0>
-1.32335

>  <SCORE.INTRA.norm>
-0.086666

>  <SCORE.RESTR>
0

>  <SCORE.RESTR.CAVITY>
0

>  <SCORE.RESTR.norm>
0

>  <SCORE.SYSTEM>
0

>  <SCORE.SYSTEM.CONST>
0

>  <SCORE.SYSTEM.DIHEDRAL>
0

>  <SCORE.SYSTEM.SOLV>
0

>  <SCORE.SYSTEM.norm>
0

>  <SCORE.heavy>
22

>  <SCORE.norm>
-0.511249

>  <RMSD>
6.546

$$$$
2fcx_lig
 OpenBabel11021811433D
libRbt.so/2013.1/901 2013/11/27
 22 23  0  0  0  0  0  0  0  0999 V2000
   26.3115    7.0699   17.8012 N   0  0  0  0  0  0  0  0  0  0  0  0
   25.0172   10.0132   14.0949 N   0  0  0  0  0  0  0  0  0  0  0  0
   28.0197    7.8717    8.9843 N   0  0  0  0  0  0  0  0  0  0  0  0
   29.5187    8.1754   14.2926 O   0  0  0  0  0  0  0  0  0  0  0  0
   28.4418    8.6856   15.0834 C   0  0  2  0  0  0  0  0  0  0  0  0
   29.7414   12.2385   12.7292 N   0  0  0  0  0  0  0  0  0  0  0  0
   29.0616    7.3310   16.9646 O   0  0  0  0  0  0  0  0  0  0  0  0
   27.9742    7.6208   16.0783 C   0  0  1  0  0  0  0  0  0  0  0  0
   27.7443   10.2825   13.3820 O   0  0  0  0  0  0  0  0  0  0  0  0
   26.7754    8.1232   16.8863 C   0  0  1  0  0  0  0  0  0  0  0  0
   28.3313    9.0101   11.5036 O   0  0  0  0  0  0  0  0  0  0  0  0
   25.6262    8.5209   15.9539 C   0  0  0  0  0  0  0  0  0  0  0  0
   26.5963   11.2858    9.1600 O   0  0  0  0  0  0  0  0  0  0  0  0
   26.1055    9.6193   15.0008 C   0  0  1  0  0  0  0  0  0  0  0  0
   28.6316   12.9697   10.1860 O   0  0  0  0  0  0  0  0  0  0  0  0
   27.3069    9.1616   14.1683 C   0  0  2  0  0  0  0  0  0  0  0  0
   28.8096    9.9637   12.4702 C   0  0  1  0  0  0  0  0  0  0  0  0
   27.2605    9.5025   10.6730 C   0  0  2  0  0  0  0  0  0  0  0  0
   26.8408    8.4399    9.6549 C   0  0  0  0  0  0  0  0  0  0  0  0
   27.6944   10.7568    9.9096 C   0  0  2  0  0  0  0  0  0  0  0  0
   28.1675   11.8223   10.8999 C   0  0  1  0  0  0  0  0  0  0  0  0
   29.2908   11.2333   11.7573 C   0  0  1  0  0  0  0  0  0  0  0  0
  5  4  1  6  0  0  0
  5  8  1  0  0  0  0
  5 16  1  0  0  0  0
  8  7  1  1  0  0  0
  8 10  1  0  0  0  0
 10  1  1  1  0  0  0
 10 12  1  0  0  0  0
 11 18  1  0  0  0  0
 12 14  1  0  0  0  0
 14  2  1  6  0  0  0
 14 16  1  0  0  0  0
 16  9  1  1  0  0  0
 17  9  1  1  0  0  0
 17 11  1  0  0  0  0
 17 22  1  0  0  0  0
 18 19  1  6  0  0  0
 18 20  1  0  0  0  0
 19  3  1  0  0  0  0
 20 13  1  1  0  0  0
 20 21  1  0  0  0  0
 21 15  1  6  0  0  0
 21 22  1  0  0  0  0
 22  6  1  1  0  0  0
M  END
>  <CHROM.1>
64.12464192,63.93464683,-47.92187895,27.71485393,9.53981407,13.04830237,1.70961289
0.80880625,1.89389510

>  <Name>
2fcx_lig

>  <RI>
3.23342e+07

>  <Rbt.Current_Directory>
/home/itssahil/PROJECTS/Mol_Feturizer/New_Systems/rnas/2fcx

>  <Rbt.Executable>
rbdock ($Id: //depot/dev/client3/rdock/2013.1/src/exe/rbdock.cxx#4 $)

>  <Rbt.Library>
libRbt.so (2013.1, Build901 2013/11/27)

>  <Rbt.Parameter_File>
/export/apps/rDock/src/rDock_2013.1_src/data/scripts/dock_solv.prm

>  <Rbt.Receptor>
prm/pocket_docking_5.prm

>  <SCORE>
-14.1776

>  <SCORE.INTER>
-13.1886

>  <SCORE.INTER.CONST>
1

>  <SCORE.INTER.POLAR>
-1.68939

>  <SCORE.INTER.ROT>
3

>  <SCORE.INTER.SOLV>
14.5237

>  <SCORE.INTER.VDW>
-13.6023

>  <SCORE.INTER.norm>
-0.59948

>  <SCORE.INTRA>
-0.989085

>  <SCORE.INTRA.DIHEDRAL>
-4.21461

>  <SCORE.INTRA.DIHEDRAL.0>
4.88619

>  <SCORE.INTRA.POLAR>
0

>  <SCORE.INTRA.POLAR.0>
0

>  <SCORE.INTRA.REPUL>
0

>  <SCORE.INTRA.REPUL.0>
0

>  <SCORE.INTRA.SOLV>
0.241933

>  <SCORE.INTRA.SOLV.lig_0>
-73.8187

>  <SCORE.INTRA.VDW>
0.997256

>  <SCORE.INTRA.VDW.0>
-1.32335

>  <SCORE.INTRA.norm>
-0.0449584

>  <SCORE.RESTR>
0

>  <SCORE.RESTR.CAVITY>
0

>  <SCORE.RESTR.norm>
0

>  <SCORE.SYSTEM>
0

>  <SCORE.SYSTEM.CONST>
0

>  <SCORE.SYSTEM.DIHEDRAL>
0

>  <SCORE.SYSTEM.SOLV>
0

>  <SCORE.SYSTEM.norm>
0

>  <SCORE.heavy>
22

>  <SCORE.norm>
-0.644438

>  <RMSD>
6.547

$$$$
2fcx_lig
 OpenBabel11021811433D
libRbt.so/2013.1/901 2013/11/27
 22 23  0  0  0  0  0  0  0  0999 V2000
   26.1273    6.7128   18.3052 N   0  0  0  0  0  0  0  0  0  0  0  0
   25.1622   10.0693   14.8588 N   0  0  0  0  0  0  0  0  0  0  0  0
   27.6929   11.8541    9.9993 N   0  0  0  0  0  0  0  0  0  0  0  0
   29.5150    7.8981   14.9981 O   0  0  0  0  0  0  0  0  0  0  0  0
   28.4517    8.4109   15.8056 C   0  0  2  0  0  0  0  0  0  0  0  0
   30.3189   10.3105   15.8214 N   0  0  0  0  0  0  0  0  0  0  0  0
   28.9143    6.8484   17.5670 O   0  0  0  0  0  0  0  0  0  0  0  0
   27.8789    7.2964   16.6843 C   0  0  1  0  0  0  0  0  0  0  0  0
   27.9230   10.2033   14.2439 O   0  0  0  0  0  0  0  0  0  0  0  0
   26.6930    7.8088   17.5050 C   0  0  1  0  0  0  0  0  0  0  0  0
   29.1729   10.4197   12.2735 O   0  0  0  0  0  0  0  0  0  0  0  0
   25.6050    8.3728   16.5850 C   0  0  0  0  0  0  0  0  0  0  0  0
   29.7299   14.0415   12.7766 O   0  0  0  0  0  0  0  0  0  0  0  0
   26.1906    9.5159   15.7512 C   0  0  1  0  0  0  0  0  0  0  0  0
   31.1123   12.9404   14.9917 O   0  0  0  0  0  0  0  0  0  0  0  0
   27.3830    9.0500   14.9105 C   0  0  2  0  0  0  0  0  0  0  0  0
   29.2069    9.9691   13.6403 C   0  0  1  0  0  0  0  0  0  0  0  0
   28.9417   11.8353   12.1273 C   0  0  2  0  0  0  0  0  0  0  0  0
   28.9574   12.2304   10.6490 C   0  0  0  0  0  0  0  0  0  0  0  0
   30.0210   12.6426   12.8535 C   0  0  2  0  0  0  0  0  0  0  0  0
   30.0637   12.2335   14.3268 C   0  0  1  0  0  0  0  0  0  0  0  0
   30.2973   10.7228   14.4115 C   0  0  1  0  0  0  0  0  0  0  0  0
  5  4  1  6  0  0  0
  5  8  1  0  0  0  0
  5 16  1  0  0  0  0
  8  7  1  1  0  0  0
  8 10  1  0  0  0  0
 10  1  1  6  0  0  0
 10 12  1  0  0  0  0
 11 18  1  0  0  0  0
 12 14  1  0  0  0  0
 14  2  1  6  0  0  0
 14 16  1  0  0  0  0
 16  9  1  1  0  0  0
 17  9  1  1  0  0  0
 17 11  1  0  0  0  0
 17 22  1  0  0  0  0
 18 19  1  6  0  0  0
 18 20  1  0  0  0  0
 19  3  1  0  0  0  0
 20 13  1  1  0  0  0
 20 21  1  0  0  0  0
 21 15  1  1  0  0  0
 21 22  1  0  0  0  0
 22  6  1  1  0  0  0
M  END
>  <CHROM.1>
47.45211662,129.58433689,77.37605931,28.45984023,10.07938951,14.58346953
1.93662702,0.37269323,2.22498405

>  <Name>
2fcx_lig

>  <RI>
0

>  <Rbt.Current_Directory>
/home/itssahil/PROJECTS/Mol_Feturizer/New_Systems/rnas/2fcx

>  <Rbt.Executable>
rbdock ($Id: //depot/dev/client3/rdock/2013.1/src/exe/rbdock.cxx#4 $)

>  <Rbt.Library>
libRbt.so (2013.1, Build901 2013/11/27)

>  <Rbt.Parameter_File>
/export/apps/rDock/src/rDock_2013.1_src/data/scripts/dock_solv.prm

>  <Rbt.Receptor>
prm/pocket_docking_2.prm

>  <SCORE>
1.59151

>  <SCORE.INTER>
-5.56255

>  <SCORE.INTER.CONST>
1

>  <SCORE.INTER.POLAR>
-0.0822313

>  <SCORE.INTER.ROT>
3

>  <SCORE.INTER.SOLV>
16.5839

>  <SCORE.INTER.VDW>
-14.5622

>  <SCORE.INTER.norm>
-0.252843

>  <SCORE.INTRA>
6.74768

>  <SCORE.INTRA.DIHEDRAL>
3.63376

>  <SCORE.INTRA.DIHEDRAL.0>
4.88619

>  <SCORE.INTRA.POLAR>
0

>  <SCORE.INTRA.POLAR.0>
0

>  <SCORE.INTRA.REPUL>
0

>  <SCORE.INTRA.REPUL.0>
0

>  <SCORE.INTRA.SOLV>
1.73387

>  <SCORE.INTRA.SOLV.lig_0>
-73.8187

>  <SCORE.INTRA.VDW>
4.06387

>  <SCORE.INTRA.VDW.0>
-1.32335

>  <SCORE.INTRA.norm>
0.306713

>  <SCORE.RESTR>
0.406381

>  <SCORE.RESTR.CAVITY>
0.406381

>  <SCORE.RESTR.norm>
0.0184719

>  <SCORE.SYSTEM>
0

>  <SCORE.SYSTEM.CONST>
0

>  <SCORE.SYSTEM.DIHEDRAL>
0

>  <SCORE.SYSTEM.SOLV>
0

>  <SCORE.SYSTEM.norm>
0

>  <SCORE.heavy>
22

>  <SCORE.norm>
0.0723413

>  <RMSD>
6.552

$$$$
2fcx_lig
 OpenBabel11021811433D
libRbt.so/2013.1/901 2013/11/27
 22 23  0  0  0  0  0  0  0  0999 V2000
   26.3157    7.0779   17.8167 N   0  0  0  0  0  0  0  0  0  0  0  0
   24.9495    9.9575   14.0863 N   0  0  0  0  0  0  0  0  0  0  0  0
   27.9013    7.8282    8.9643 N   0  0  0  0  0  0  0  0  0  0  0  0
   29.4808    8.1934   14.2732 O   0  0  0  0  0  0  0  0  0  0  0  0
   28.4014    8.6956   15.0657 C   0  0  2  0  0  0  0  0  0  0  0  0
   29.6402   12.2291   12.6613 N   0  0  0  0  0  0  0  0  0  0  0  0
   29.0555    7.3727   16.9579 O   0  0  0  0  0  0  0  0  0  0  0  0
   27.9576    7.6350   16.0760 C   0  0  1  0  0  0  0  0  0  0  0  0
   27.6670   10.2616   13.3512 O   0  0  0  0  0  0  0  0  0  0  0  0
   26.7566    8.1277   16.8866 C   0  0  1  0  0  0  0  0  0  0  0  0
   28.2381    8.9838   11.4716 O   0  0  0  0  0  0  0  0  0  0  0  0
   25.5948    8.4965   15.9579 C   0  0  0  0  0  0  0  0  0  0  0  0
   26.4544   11.2340    9.1400 O   0  0  0  0  0  0  0  0  0  0  0  0
   26.0501    9.5912   14.9889 C   0  0  1  0  0  0  0  0  0  0  0  0
   28.4906   12.9384   10.1295 O   0  0  0  0  0  0  0  0  0  0  0  0
   27.2528    9.1430   14.1533 C   0  0  2  0  0  0  0  0  0  0  0  0
   28.7222    9.9460   12.4267 C   0  0  1  0  0  0  0  0  0  0  0  0
   27.1525    9.4637   10.6531 C   0  0  2  0  0  0  0  0  0  0  0  0
   26.7272    8.3927    9.6463 C   0  0  0  0  0  0  0  0  0  0  0  0
   27.5666   10.7172    9.8774 C   0  0  2  0  0  0  0  0  0  0  0  0
   28.0449   11.7914   10.8556 C   0  0  1  0  0  0  0  0  0  0  0  0
   29.1842   11.2154   11.7007 C   0  0  1  0  0  0  0  0  0  0  0  0
  5  4  1  6  0  0  0
  5  8  1  0  0  0  0
  5 16  1  0  0  0  0
  8  7  1  1  0  0  0
  8 10  1  0  0  0  0
 10  1  1  1  0  0  0
 10 12  1  0  0  0  0
 11 18  1  0  0  0  0
 12 14  1  0  0  0  0
 14  2  1  6  0  0  0
 14 16  1  0  0  0  0
 16  9  1  1  0  0  0
 17  9  1  1  0  0  0
 17 11  1  0  0  0  0
 17 22  1  0  0  0  0
 18 19  1  6  0  0  0
 18 20  1  0  0  0  0
 19  3  1  0  0  0  0
 20 13  1  1  0  0  0
 20 21  1  0  0  0  0
 21 15  1  6  0  0  0
 21 22  1  0  0  0  0
 22  6  1  1  0  0  0
M  END
>  <CHROM.1>
64.68375311,64.19418492,-47.82577775,27.63890742,9.52156409,13.02571167,1.68419134
0.79132223,1.90558970

>  <Name>
2fcx_lig

>  <RI>
3.23342e+07

>  <Rbt.Current_Directory>
/home/itssahil/PROJECTS/Mol_Feturizer/New_Systems/rnas/2fcx

>  <Rbt.Executable>
rbdock ($Id: //depot/dev/client3/rdock/2013.1/src/exe/rbdock.cxx#4 $)

>  <Rbt.Library>
libRbt.so (2013.1, Build901 2013/11/27)

>  <Rbt.Parameter_File>
/export/apps/rDock/src/rDock_2013.1_src/data/scripts/dock_solv.prm

>  <Rbt.Receptor>
prm/pocket_docking_5.prm

>  <SCORE>
-14.1563

>  <SCORE.INTER>
-13.152

>  <SCORE.INTER.CONST>
1

>  <SCORE.INTER.POLAR>
-1.72003

>  <SCORE.INTER.ROT>
3

>  <SCORE.INTER.SOLV>
13.8073

>  <SCORE.INTER.VDW>
-13.237

>  <SCORE.INTER.norm>
-0.597819

>  <SCORE.INTRA>
-1.00425

>  <SCORE.INTRA.DIHEDRAL>
-4.17238

>  <SCORE.INTRA.DIHEDRAL.0>
4.88619

>  <SCORE.INTRA.POLAR>
0

>  <SCORE.INTRA.POLAR.0>
0

>  <SCORE.INTRA.REPUL>
0

>  <SCORE.INTRA.REPUL.0>
0

>  <SCORE.INTRA.SOLV>
0.253605

>  <SCORE.INTRA.SOLV.lig_0>
-73.8187

>  <SCORE.INTRA.VDW>
0.955136

>  <SCORE.INTRA.VDW.0>
-1.32335

>  <SCORE.INTRA.norm>
-0.0456479

>  <SCORE.RESTR>
0

>  <SCORE.RESTR.CAVITY>
0

>  <SCORE.RESTR.norm>
0

>  <SCORE.SYSTEM>
0

>  <SCORE.SYSTEM.CONST>
0

>  <SCORE.SYSTEM.DIHEDRAL>
0

>  <SCORE.SYSTEM.SOLV>
0

>  <SCORE.SYSTEM.norm>
0

>  <SCORE.heavy>
22

>  <SCORE.norm>
-0.643467

>  <RMSD>
6.553

$$$$
2fcx_lig
 OpenBabel11021811433D
libRbt.so/2013.1/901 2013/11/27
 22 23  0  0  0  0  0  0  0  0999 V2000
   28.0848    8.0145   16.7185 N   0  0  0  0  0  0  0  0  0  0  0  0
   24.9528    7.9296   12.9425 N   0  0  0  0  0  0  0  0  0  0  0  0
   27.9723    5.2476   10.2897 N   0  0  0  0  0  0  0  0  0  0  0  0
   29.5511    9.3706   12.2654 O   0  0  0  0  0  0  0  0  0  0  0  0
   28.4549    9.3940   13.1836 C   0  0  2  0  0  0  0  0  0  0  0  0
   26.6882   11.5756    9.4721 N   0  0  0  0  0  0  0  0  0  0  0  0
   29.9249    9.5141   15.0764 O   0  0  0  0  0  0  0  0  0  0  0  0
   28.8654    8.7382   14.5042 C   0  0  1  0  0  0  0  0  0  0  0  0
   26.7777    9.4682   11.4193 O   0  0  0  0  0  0  0  0  0  0  0  0
   27.6839    8.6903   15.4758 C   0  0  1  0  0  0  0  0  0  0  0  0
   28.0731    8.1495    9.9790 O   0  0  0  0  0  0  0  0  0  0  0  0
   26.5041    7.9370   14.8522 C   0  0  0  0  0  0  0  0  0  0  0  0
   25.1798    7.2575    7.8543 O   0  0  0  0  0  0  0  0  0  0  0  0
   26.0828    8.6394   13.5585 C   0  0  1  0  0  0  0  0  0  0  0  0
   25.3485   10.0557    7.4400 O   0  0  0  0  0  0  0  0  0  0  0  0
   27.2353    8.7114   12.5524 C   0  0  2  0  0  0  0  0  0  0  0  0
   27.7178    9.4992   10.3317 C   0  0  1  0  0  0  0  0  0  0  0  0
   26.9682    7.3578    9.4981 C   0  0  2  0  0  0  0  0  0  0  0  0
   27.4422    5.9544    9.1141 C   0  0  0  0  0  0  0  0  0  0  0  0
   26.3286    8.0045    8.2664 C   0  0  2  0  0  0  0  0  0  0  0  0
   25.8881    9.4295    8.6054 C   0  0  1  0  0  0  0  0  0  0  0  0
   27.1002   10.2098    9.1211 C   0  0  1  0  0  0  0  0  0  0  0  0
  5  4  1  6  0  0  0
  5  8  1  0  0  0  0
  5 16  1  0  0  0  0
  8  7  1  1  0  0  0
  8 10  1  0  0  0  0
 10  1  1  1  0  0  0
 10 12  1  0  0  0  0
 11 18  1  0  0  0  0
 12 14  1  0  0  0  0
 14  2  1  6  0  0  0
 14 16  1  0  0  0  0
 16  9  1  6  0  0  0
 17  9  1  1  0  0  0
 17 11  1  0  0  0  0
 17 22  1  0  0  0  0
 18 19  1  6  0  0  0
 18 20  1  0  0  0  0
 19  3  1  0  0  0  0
 20 13  1  1  0  0  0
 20 21  1  0  0  0  0
 21 15  1  6  0  0  0
 21 22  1  0  0  0  0
 22  6  1  1  0  0  0
M  END
>  <CHROM.1>
65.63440351,53.97859315,62.71105887,27.22873499,8.60316829,11.44622788,0.31297822
1.26705203,2.79873639

>  <Name>
2fcx_lig

>  <RI>
4.08374e+07

>  <Rbt.Current_Directory>
/home/itssahil/PROJECTS/Mol_Feturizer/New_Systems/rnas/2fcx

>  <Rbt.Executable>
rbdock ($Id: //depot/dev/client3/rdock/2013.1/src/exe/rbdock.cxx#4 $)

>  <Rbt.Library>
libRbt.so (2013.1, Build901 2013/11/27)

>  <Rbt.Parameter_File>
/export/apps/rDock/src/rDock_2013.1_src/data/scripts/dock_solv.prm

>  <Rbt.Receptor>
prm/pocket_docking_7.prm

>  <SCORE>
-12.1863

>  <SCORE.INTER>
-10.4047

>  <SCORE.INTER.CONST>
1

>  <SCORE.INTER.POLAR>
-2.16969

>  <SCORE.INTER.ROT>
3

>  <SCORE.INTER.SOLV>
11.2011

>  <SCORE.INTER.VDW>
-9.03791

>  <SCORE.INTER.norm>
-0.472943

>  <SCORE.INTRA>
-1.78156

>  <SCORE.INTRA.DIHEDRAL>
-4.51953

>  <SCORE.INTRA.DIHEDRAL.0>
4.88619

>  <SCORE.INTRA.POLAR>
0

>  <SCORE.INTRA.POLAR.0>
0

>  <SCORE.INTRA.REPUL>
0

>  <SCORE.INTRA.REPUL.0>
0

>  <SCORE.INTRA.SOLV>
-0.79019

>  <SCORE.INTRA.SOLV.lig_0>
-73.8187

>  <SCORE.INTRA.VDW>
0.873302

>  <SCORE.INTRA.VDW.0>
-1.32335

>  <SCORE.INTRA.norm>
-0.0809799

>  <SCORE.RESTR>
0

>  <SCORE.RESTR.CAVITY>
0

>  <SCORE.RESTR.norm>
0

>  <SCORE.SYSTEM>
0

>  <SCORE.SYSTEM.CONST>
0

>  <SCORE.SYSTEM.DIHEDRAL>
0

>  <SCORE.SYSTEM.SOLV>
0

>  <SCORE.SYSTEM.norm>
0

>  <SCORE.heavy>
22

>  <SCORE.norm>
-0.553923

>  <RMSD>
6.553

$$$$
2fcx_lig
 OpenBabel11021811433D
libRbt.so/2013.1/901 2013/11/27
 22 23  0  0  0  0  0  0  0  0999 V2000
   25.9335    7.2904   17.4852 N   0  0  0  0  0  0  0  0  0  0  0  0
   25.7342   10.9354   14.2066 N   0  0  0  0  0  0  0  0  0  0  0  0
   28.0503    8.7195    9.9984 N   0  0  0  0  0  0  0  0  0  0  0  0
   29.8597    8.4284   14.8190 O   0  0  0  0  0  0  0  0  0  0  0  0
   28.7217    8.9669   15.4976 C   0  0  2  0  0  0  0  0  0  0  0  0
   30.9620   12.4643   14.1042 N   0  0  0  0  0  0  0  0  0  0  0  0
   28.8036    7.2585   17.1807 O   0  0  0  0  0  0  0  0  0  0  0  0
   27.9479    7.8438   16.1921 C   0  0  1  0  0  0  0  0  0  0  0  0
   28.5593   10.8957   14.0196 O   0  0  0  0  0  0  0  0  0  0  0  0
   26.6870    8.3904   16.8655 C   0  0  1  0  0  0  0  0  0  0  0  0
   29.1913    9.9811   11.9566 O   0  0  0  0  0  0  0  0  0  0  0  0
   25.7930    9.0977   15.8414 C   0  0  0  0  0  0  0  0  0  0  0  0
   28.3028   13.0473   10.0883 O   0  0  0  0  0  0  0  0  0  0  0  0
   26.5743   10.2452   15.1955 C   0  0  1  0  0  0  0  0  0  0  0  0
   30.4254   13.9719   11.7223 O   0  0  0  0  0  0  0  0  0  0  0  0
   27.8478    9.7457   14.5068 C   0  0  2  0  0  0  0  0  0  0  0  0
   29.6782   10.5653   13.1789 C   0  0  1  0  0  0  0  0  0  0  0  0
   28.3762   10.8689   11.1653 C   0  0  2  0  0  0  0  0  0  0  0  0
   27.9342   10.1800    9.8723 C   0  0  0  0  0  0  0  0  0  0  0  0
   29.1506   12.1369   10.7955 C   0  0  2  0  0  0  0  0  0  0  0  0
   29.6493   12.8232   12.0682 C   0  0  1  0  0  0  0  0  0  0  0  0
   30.4934   11.8261   12.8667 C   0  0  1  0  0  0  0  0  0  0  0  0
  5  4  1  6  0  0  0
  5  8  1  0  0  0  0
  5 16  1  0  0  0  0
  8  7  1  1  0  0  0
  8 10  1  0  0  0  0
 10  1  1  6  0  0  0
 10 12  1  0  0  0  0
 11 18  1  0  0  0  0
 12 14  1  0  0  0  0
 14  2  1  6  0  0  0
 14 16  1  0  0  0  0
 16  9  1  1  0  0  0
 17  9  1  1  0  0  0
 17 11  1  0  0  0  0
 17 22  1  0  0  0  0
 18 19  1  6  0  0  0
 18 20  1  0  0  0  0
 19  3  1  0  0  0  0
 20 13  1  1  0  0  0
 20 21  1  0  0  0  0
 21 15  1  6  0  0  0
 21 22  1  0  0  0  0
 22  6  1  1  0  0  0
M  END
>  <CHROM.1>
68.22088658,67.28174877,19.55128967,28.42106075,10.26864255,13.60008768,1.94334291
0.63456299,1.98145117

>  <Name>
2fcx_lig

>  <RI>
1.21945e+07

>  <Rbt.Current_Directory>
/home/itssahil/PROJECTS/Mol_Feturizer/New_Systems/rnas/2fcx

>  <Rbt.Executable>
rbdock ($Id: //depot/dev/client3/rdock/2013.1/src/exe/rbdock.cxx#4 $)

>  <Rbt.Library>
libRbt.so (2013.1, Build901 2013/11/27)

>  <Rbt.Parameter_File>
/export/apps/rDock/src/rDock_2013.1_src/data/scripts/dock_solv.prm

>  <Rbt.Receptor>
prm/pocket_docking_3.prm

>  <SCORE>
-9.65405

>  <SCORE.INTER>
-10.1019

>  <SCORE.INTER.CONST>
1

>  <SCORE.INTER.POLAR>
-1.14675

>  <SCORE.INTER.ROT>
3

>  <SCORE.INTER.SOLV>
18.1763

>  <SCORE.INTER.VDW>
-14.5708

>  <SCORE.INTER.norm>
-0.459178

>  <SCORE.INTRA>
0.442446

>  <SCORE.INTRA.DIHEDRAL>
-0.278754

>  <SCORE.INTRA.DIHEDRAL.0>
4.88619

>  <SCORE.INTRA.POLAR>
0

>  <SCORE.INTRA.POLAR.0>
0

>  <SCORE.INTRA.REPUL>
0

>  <SCORE.INTRA.REPUL.0>
0

>  <SCORE.INTRA.SOLV>
-0.479049

>  <SCORE.INTRA.SOLV.lig_0>
-73.8187

>  <SCORE.INTRA.VDW>
0.821347

>  <SCORE.INTRA.VDW.0>
-1.32335

>  <SCORE.INTRA.norm>
0.0201112

>  <SCORE.RESTR>
0.00542181

>  <SCORE.RESTR.CAVITY>
0.00542181

>  <SCORE.RESTR.norm>
0.000246446

>  <SCORE.SYSTEM>
0

>  <SCORE.SYSTEM.CONST>
0

>  <SCORE.SYSTEM.DIHEDRAL>
0

>  <SCORE.SYSTEM.SOLV>
0

>  <SCORE.SYSTEM.norm>
0

>  <SCORE.heavy>
22

>  <SCORE.norm>
-0.43882

>  <RMSD>
6.564

$$$$
2fcx_lig
 OpenBabel11021811433D
libRbt.so/2013.1/901 2013/11/27
 22 23  0  0  0  0  0  0  0  0999 V2000
   26.2176    7.1932   17.7876 N   0  0  0  0  0  0  0  0  0  0  0  0
   24.8865    9.8680   13.8955 N   0  0  0  0  0  0  0  0  0  0  0  0
   26.2820    7.0094   10.1842 N   0  0  0  0  0  0  0  0  0  0  0  0
   29.4195    8.1292   14.2252 O   0  0  0  0  0  0  0  0  0  0  0  0
   28.3302    8.6695   14.9782 C   0  0  2  0  0  0  0  0  0  0  0  0
   29.6305   12.0757   12.5280 N   0  0  0  0  0  0  0  0  0  0  0  0
   28.9662    7.4502   16.9446 O   0  0  0  0  0  0  0  0  0  0  0  0
   27.8775    7.6624   16.0381 C   0  0  1  0  0  0  0  0  0  0  0  0
   27.6114   10.1407   13.1754 O   0  0  0  0  0  0  0  0  0  0  0  0
   26.6664    8.1937   16.8082 C   0  0  1  0  0  0  0  0  0  0  0  0
   28.2621    8.8079   11.3609 O   0  0  0  0  0  0  0  0  0  0  0  0
   25.5142    8.5097   15.8486 C   0  0  0  0  0  0  0  0  0  0  0  0
   26.6098   11.0045    8.8857 O   0  0  0  0  0  0  0  0  0  0  0  0
   25.9778    9.5530   14.8282 C   0  0  1  0  0  0  0  0  0  0  0  0
   28.6093   12.7224    9.9255 O   0  0  0  0  0  0  0  0  0  0  0  0
   27.1908    9.0648   14.0308 C   0  0  2  0  0  0  0  0  0  0  0  0
   28.7072    9.7930   12.3117 C   0  0  1  0  0  0  0  0  0  0  0  0
   27.2208    9.2721   10.4783 C   0  0  2  0  0  0  0  0  0  0  0  0
   26.8359    8.1765    9.4817 C   0  0  0  0  0  0  0  0  0  0  0  0
   27.6813   10.5011    9.6896 C   0  0  2  0  0  0  0  0  0  0  0  0
   28.1204   11.5987   10.6602 C   0  0  1  0  0  0  0  0  0  0  0  0
   29.2133   11.0389   11.5745 C   0  0  1  0  0  0  0  0  0  0  0  0
  5  4  1  6  0  0  0
  5  8  1  0  0  0  0
  5 16  1  0  0  0  0
  8  7  1  1  0  0  0
  8 10  1  0  0  0  0
 10  1  1  1  0  0  0
 10 12  1  0  0  0  0
 11 18  1  0  0  0  0
 12 14  1  0  0  0  0
 14  2  1  6  0  0  0
 14 16  1  0  0  0  0
 16  9  1  6  0  0  0
 17  9  1  1  0  0  0
 17 11  1  0  0  0  0
 17 22  1  0  0  0  0
 18 19  1  6  0  0  0
 18 20  1  0  0  0  0
 19  3  1  0  0  0  0
 20 13  1  1  0  0  0
 20 21  1  0  0  0  0
 21 15  1  6  0  0  0
 21 22  1  0  0  0  0
 22  6  1  1  0  0  0
M  END
>  <CHROM.1>
62.72560263,66.90089720,62.93446430,27.55977630,9.39099959,12.95691861,1.69344469
0.74125586,1.89135599

>  <Name>
2fcx_lig

>  <RI>
4.08374e+07

>  <Rbt.Current_Directory>
/home/itssahil/PROJECTS/Mol_Feturizer/New_Systems/rnas/2fcx

>  <Rbt.Executable>
rbdock ($Id: //depot/dev/client3/rdock/2013.1/src/exe/rbdock.cxx#4 $)

>  <Rbt.Library>
libRbt.so (2013.1, Build901 2013/11/27)

>  <Rbt.Parameter_File>
/export/apps/rDock/src/rDock_2013.1_src/data/scripts/dock_solv.prm

>  <Rbt.Receptor>
prm/pocket_docking_7.prm

>  <SCORE>
-11.666

>  <SCORE.INTER>
-9.9913

>  <SCORE.INTER.CONST>
1

>  <SCORE.INTER.POLAR>
-0.866698

>  <SCORE.INTER.ROT>
3

>  <SCORE.INTER.SOLV>
12.1737

>  <SCORE.INTER.VDW>
-13.4298

>  <SCORE.INTER.norm>
-0.45415

>  <SCORE.INTRA>
-1.67474

>  <SCORE.INTRA.DIHEDRAL>
-4.57903

>  <SCORE.INTRA.DIHEDRAL.0>
4.88619

>  <SCORE.INTRA.POLAR>
0

>  <SCORE.INTRA.POLAR.0>
0

>  <SCORE.INTRA.REPUL>
0

>  <SCORE.INTRA.REPUL.0>
0

>  <SCORE.INTRA.SOLV>
-0.982074

>  <SCORE.INTRA.SOLV.lig_0>
-73.8187

>  <SCORE.INTRA.VDW>
1.10581

>  <SCORE.INTRA.VDW.0>
-1.32335

>  <SCORE.INTRA.norm>
-0.0761245

>  <SCORE.RESTR>
0

>  <SCORE.RESTR.CAVITY>
0

>  <SCORE.RESTR.norm>
0

>  <SCORE.SYSTEM>
0

>  <SCORE.SYSTEM.CONST>
0

>  <SCORE.SYSTEM.DIHEDRAL>
0

>  <SCORE.SYSTEM.SOLV>
0

>  <SCORE.SYSTEM.norm>
0

>  <SCORE.heavy>
22

>  <SCORE.norm>
-0.530274

>  <RMSD>
6.566

$$$$
2fcx_lig
 OpenBabel11021811433D
libRbt.so/2013.1/901 2013/11/27
 22 23  0  0  0  0  0  0  0  0999 V2000
   28.4194    7.9401   16.5776 N   0  0  0  0  0  0  0  0  0  0  0  0
   25.2136    7.5556   12.8830 N   0  0  0  0  0  0  0  0  0  0  0  0
   28.3435    5.2581   10.0446 N   0  0  0  0  0  0  0  0  0  0  0  0
   29.5977    9.5223   12.1136 O   0  0  0  0  0  0  0  0  0  0  0  0
   28.5318    9.4064   13.0601 C   0  0  2  0  0  0  0  0  0  0  0  0
   26.4719   11.4545    9.4568 N   0  0  0  0  0  0  0  0  0  0  0  0
   30.0307    9.6647   14.9161 O   0  0  0  0  0  0  0  0  0  0  0  0
   29.0508    8.7818   14.3574 C   0  0  1  0  0  0  0  0  0  0  0  0
   26.8087    9.3154   11.3414 O   0  0  0  0  0  0  0  0  0  0  0  0
   27.9099    8.5845   15.3582 C   0  0  1  0  0  0  0  0  0  0  0  0
   28.1532    8.1447    9.8204 O   0  0  0  0  0  0  0  0  0  0  0  0
   26.8065    7.7109   14.7517 C   0  0  0  0  0  0  0  0  0  0  0  0
   25.2651    7.0659    7.7768 O   0  0  0  0  0  0  0  0  0  0  0  0
   26.2723    8.3803   13.4823 C   0  0  1  0  0  0  0  0  0  0  0  0
   25.1863    9.8777    7.4331 O   0  0  0  0  0  0  0  0  0  0  0  0
   27.3807    8.5986   12.4482 C   0  0  2  0  0  0  0  0  0  0  0  0
   27.7012    9.4511   10.2221 C   0  0  1  0  0  0  0  0  0  0  0  0
   27.1000    7.2754    9.3578 C   0  0  2  0  0  0  0  0  0  0  0  0
   27.6734    5.9262    8.9190 C   0  0  0  0  0  0  0  0  0  0  0  0
   26.3631    7.8960    8.1678 C   0  0  2  0  0  0  0  0  0  0  0  0
   25.8196    9.2707    8.5610 C   0  0  1  0  0  0  0  0  0  0  0  0
   26.9817   10.1368    9.0542 C   0  0  1  0  0  0  0  0  0  0  0  0
  5  4  1  6  0  0  0
  5  8  1  0  0  0  0
  5 16  1  0  0  0  0
  8  7  1  1  0  0  0
  8 10  1  0  0  0  0
 10  1  1  1  0  0  0
 10 12  1  0  0  0  0
 11 18  1  0  0  0  0
 12 14  1  0  0  0  0
 14  2  1  6  0  0  0
 14 16  1  0  0  0  0
 16  9  1  6  0  0  0
 17  9  1  1  0  0  0
 17 11  1  0  0  0  0
 17 22  1  0  0  0  0
 18 19  1  6  0  0  0
 18 20  1  0  0  0  0
 19  3  1  0  0  0  0
 20 13  1  1  0  0  0
 20 21  1  0  0  0  0
 21 15  1  6  0  0  0
 21 22  1  0  0  0  0
 22  6  1  1  0  0  0
M  END
>  <CHROM.1>
66.59002243,55.32436099,60.81705968,27.32932871,8.51739459,11.33627177,0.05216983
1.25014111,3.05411253

>  <Name>
2fcx_lig

>  <RI>
4.08374e+07

>  <Rbt.Current_Directory>
/home/itssahil/PROJECTS/Mol_Feturizer/New_Systems/rnas/2fcx

>  <Rbt.Executable>
rbdock ($Id: //depot/dev/client3/rdock/2013.1/src/exe/rbdock.cxx#4 $)

>  <Rbt.Library>
libRbt.so (2013.1, Build901 2013/11/27)

>  <Rbt.Parameter_File>
/export/apps/rDock/src/rDock_2013.1_src/data/scripts/dock_solv.prm

>  <Rbt.Receptor>
prm/pocket_docking_7.prm

>  <SCORE>
-11.8534

>  <SCORE.INTER>
-9.97888

>  <SCORE.INTER.CONST>
1

>  <SCORE.INTER.POLAR>
-2.0764

>  <SCORE.INTER.ROT>
3

>  <SCORE.INTER.SOLV>
12.5388

>  <SCORE.INTER.VDW>
-9.51085

>  <SCORE.INTER.norm>
-0.453586

>  <SCORE.INTRA>
-1.87457

>  <SCORE.INTRA.DIHEDRAL>
-4.55599

>  <SCORE.INTRA.DIHEDRAL.0>
4.88619

>  <SCORE.INTRA.POLAR>
0

>  <SCORE.INTRA.POLAR.0>
0

>  <SCORE.INTRA.REPUL>
0

>  <SCORE.INTRA.REPUL.0>
0

>  <SCORE.INTRA.SOLV>
-0.780715

>  <SCORE.INTRA.SOLV.lig_0>
-73.8187

>  <SCORE.INTRA.VDW>
0.793788

>  <SCORE.INTRA.VDW.0>
-1.32335

>  <SCORE.INTRA.norm>
-0.0852076

>  <SCORE.RESTR>
0

>  <SCORE.RESTR.CAVITY>
0

>  <SCORE.RESTR.norm>
0

>  <SCORE.SYSTEM>
0

>  <SCORE.SYSTEM.CONST>
0

>  <SCORE.SYSTEM.DIHEDRAL>
0

>  <SCORE.SYSTEM.SOLV>
0

>  <SCORE.SYSTEM.norm>
0

>  <SCORE.heavy>
22

>  <SCORE.norm>
-0.538793

>  <RMSD>
6.569

$$$$
2fcx_lig
 OpenBabel11021811433D
libRbt.so/2013.1/901 2013/11/27
 22 23  0  0  0  0  0  0  0  0999 V2000
   26.1483    7.1745   17.7324 N   0  0  0  0  0  0  0  0  0  0  0  0
   24.8749    9.9067   13.8609 N   0  0  0  0  0  0  0  0  0  0  0  0
   26.2893    7.0488   10.1293 N   0  0  0  0  0  0  0  0  0  0  0  0
   29.3816    8.1018   14.1962 O   0  0  0  0  0  0  0  0  0  0  0  0
   28.2959    8.6495   14.9490 C   0  0  2  0  0  0  0  0  0  0  0  0
   29.6503   12.0704   12.5469 N   0  0  0  0  0  0  0  0  0  0  0  0
   28.9045    7.4017   16.9062 O   0  0  0  0  0  0  0  0  0  0  0  0
   27.8237    7.6382   15.9963 C   0  0  1  0  0  0  0  0  0  0  0  0
   27.6070   10.1487   13.1576 O   0  0  0  0  0  0  0  0  0  0  0  0
   26.6160    8.1785   16.7656 C   0  0  1  0  0  0  0  0  0  0  0  0
   28.2661    8.8236   11.3406 O   0  0  0  0  0  0  0  0  0  0  0  0
   25.4734    8.5201   15.8033 C   0  0  0  0  0  0  0  0  0  0  0  0
   26.6608   11.0528    8.8637 O   0  0  0  0  0  0  0  0  0  0  0  0
   25.9568    9.5672   14.7960 C   0  0  1  0  0  0  0  0  0  0  0  0
   28.6637   12.7452    9.9382 O   0  0  0  0  0  0  0  0  0  0  0  0
   27.1671    9.0702   13.9998 C   0  0  2  0  0  0  0  0  0  0  0  0
   28.7093    9.7976   12.3035 C   0  0  1  0  0  0  0  0  0  0  0  0
   27.2388    9.3035   10.4500 C   0  0  2  0  0  0  0  0  0  0  0  0
   26.8553    8.2187    9.4411 C   0  0  0  0  0  0  0  0  0  0  0  0
   27.7188   10.5340    9.6756 C   0  0  2  0  0  0  0  0  0  0  0  0
   28.1568   11.6205   10.6591 C   0  0  1  0  0  0  0  0  0  0  0  0
   29.2345   11.0443   11.5812 C   0  0  1  0  0  0  0  0  0  0  0  0
  5  4  1  6  0  0  0
  5  8  1  0  0  0  0
  5 16  1  0  0  0  0
  8  7  1  1  0  0  0
  8 10  1  0  0  0  0
 10  1  1  1  0  0  0
 10 12  1  0  0  0  0
 11 18  1  0  0  0  0
 12 14  1  0  0  0  0
 14  2  1  6  0  0  0
 14 16  1  0  0  0  0
 16  9  1  6  0  0  0
 17  9  1  1  0  0  0
 17 11  1  0  0  0  0
 17 22  1  0  0  0  0
 18 19  1  6  0  0  0
 18 20  1  0  0  0  0
 19  3  1  0  0  0  0
 20 13  1  1  0  0  0
 20 21  1  0  0  0  0
 21 15  1  6  0  0  0
 21 22  1  0  0  0  0
 22  6  1  1  0  0  0
M  END
>  <CHROM.1>
62.26884179,66.87215777,62.65983876,27.55380924,9.39915533,12.93211480,1.71122810
0.74135761,1.88734795

>  <Name>
2fcx_lig

>  <RI>
3.23342e+07

>  <Rbt.Current_Directory>
/home/itssahil/PROJECTS/Mol_Feturizer/New_Systems/rnas/2fcx

>  <Rbt.Executable>
rbdock ($Id: //depot/dev/client3/rdock/2013.1/src/exe/rbdock.cxx#4 $)

>  <Rbt.Library>
libRbt.so (2013.1, Build901 2013/11/27)

>  <Rbt.Parameter_File>
/export/apps/rDock/src/rDock_2013.1_src/data/scripts/dock_solv.prm

>  <Rbt.Receptor>
prm/pocket_docking_5.prm

>  <SCORE>
-11.6769

>  <SCORE.INTER>
-10.0398

>  <SCORE.INTER.CONST>
1

>  <SCORE.INTER.POLAR>
-0.886272

>  <SCORE.INTER.ROT>
3

>  <SCORE.INTER.SOLV>
12.4943

>  <SCORE.INTER.VDW>
-13.5037

>  <SCORE.INTER.norm>
-0.456353

>  <SCORE.INTRA>
-1.63717

>  <SCORE.INTRA.DIHEDRAL>
-4.59755

>  <SCORE.INTRA.DIHEDRAL.0>
4.88619

>  <SCORE.INTRA.POLAR>
0

>  <SCORE.INTRA.POLAR.0>
0

>  <SCORE.INTRA.REPUL>
0

>  <SCORE.INTRA.REPUL.0>
0

>  <SCORE.INTRA.SOLV>
-0.988845

>  <SCORE.INTRA.SOLV.lig_0>
-73.8187

>  <SCORE.INTRA.VDW>
1.15602

>  <SCORE.INTRA.VDW.0>
-1.32335

>  <SCORE.INTRA.norm>
-0.074417

>  <SCORE.RESTR>
0

>  <SCORE.RESTR.CAVITY>
0

>  <SCORE.RESTR.norm>
0

>  <SCORE.SYSTEM>
0

>  <SCORE.SYSTEM.CONST>
0

>  <SCORE.SYSTEM.DIHEDRAL>
0

>  <SCORE.SYSTEM.SOLV>
0

>  <SCORE.SYSTEM.norm>
0

>  <SCORE.heavy>
22

>  <SCORE.norm>
-0.53077

>  <RMSD>
6.586

$$$$
2fcx_lig
 OpenBabel11021811433D
libRbt.so/2013.1/901 2013/11/27
 22 23  0  0  0  0  0  0  0  0999 V2000
   26.4232    7.1332   17.8130 N   0  0  0  0  0  0  0  0  0  0  0  0
   24.8970    9.5699   13.8371 N   0  0  0  0  0  0  0  0  0  0  0  0
   26.3230    6.9622    9.9818 N   0  0  0  0  0  0  0  0  0  0  0  0
   29.5410    8.1626   14.2021 O   0  0  0  0  0  0  0  0  0  0  0  0
   28.4191    8.6522   14.9417 C   0  0  2  0  0  0  0  0  0  0  0  0
   29.5824   12.0002   12.5380 N   0  0  0  0  0  0  0  0  0  0  0  0
   29.1446    7.5503   16.9461 O   0  0  0  0  0  0  0  0  0  0  0  0
   28.0409    7.6543   16.0388 C   0  0  1  0  0  0  0  0  0  0  0  0
   27.5940   10.0053   13.0925 O   0  0  0  0  0  0  0  0  0  0  0  0
   26.7983    8.1272   16.7967 C   0  0  1  0  0  0  0  0  0  0  0  0
   28.3043    8.7404   11.2521 O   0  0  0  0  0  0  0  0  0  0  0  0
   25.6238    8.3283   15.8331 C   0  0  0  0  0  0  0  0  0  0  0  0
   26.6487   10.9740    8.8126 O   0  0  0  0  0  0  0  0  0  0  0  0
   26.0105    9.3646   14.7742 C   0  0  1  0  0  0  0  0  0  0  0  0
   28.5928   12.7019    9.9375 O   0  0  0  0  0  0  0  0  0  0  0  0
   27.2520    8.9338   13.9875 C   0  0  2  0  0  0  0  0  0  0  0  0
   28.7118    9.7061   12.2389 C   0  0  1  0  0  0  0  0  0  0  0  0
   27.2688    9.2086   10.3648 C   0  0  2  0  0  0  0  0  0  0  0  0
   26.9247    8.1351    9.3300 C   0  0  0  0  0  0  0  0  0  0  0  0
   27.7165   10.4696    9.6206 C   0  0  2  0  0  0  0  0  0  0  0  0
   28.1153   11.5471   10.6303 C   0  0  1  0  0  0  0  0  0  0  0  0
   29.2039   10.9834   11.5475 C   0  0  1  0  0  0  0  0  0  0  0  0
  5  4  1  6  0  0  0
  5  8  1  0  0  0  0
  5 16  1  0  0  0  0
  8  7  1  1  0  0  0
  8 10  1  0  0  0  0
 10  1  1  1  0  0  0
 10 12  1  0  0  0  0
 11 18  1  0  0  0  0
 12 14  1  0  0  0  0
 14  2  1  6  0  0  0
 14 16  1  0  0  0  0
 16  9  1  6  0  0  0
 17  9  1  1  0  0  0
 17 11  1  0  0  0  0
 17 22  1  0  0  0  0
 18 19  1  6  0  0  0
 18 20  1  0  0  0  0
 19  3  1  0  0  0  0
 20 13  1  1  0  0  0
 20 21  1  0  0  0  0
 21 15  1  6  0  0  0
 21 22  1  0  0  0  0
 22  6  1  1  0  0  0
M  END
>  <CHROM.1>
62.50601509,71.77547119,65.68850576,27.61921906,9.32363027,12.90586696,1.66175266
0.74636084,1.89927680

>  <Name>
2fcx_lig

>  <RI>
0

>  <Rbt.Current_Directory>
/home/itssahil/PROJECTS/Mol_Feturizer/New_Systems/rnas/2fcx

>  <Rbt.Executable>
rbdock ($Id: //depot/dev/client3/rdock/2013.1/src/exe/rbdock.cxx#4 $)

>  <Rbt.Library>
libRbt.so (2013.1, Build901 2013/11/27)

>  <Rbt.Parameter_File>
/export/apps/rDock/src/rDock_2013.1_src/data/scripts/dock_solv.prm

>  <Rbt.Receptor>
prm/pocket_docking_6.prm

>  <SCORE>
-11.6305

>  <SCORE.INTER>
-10.2061

>  <SCORE.INTER.CONST>
1

>  <SCORE.INTER.POLAR>
-0.917049

>  <SCORE.INTER.ROT>
3

>  <SCORE.INTER.SOLV>
11.9573

>  <SCORE.INTER.VDW>
-13.333

>  <SCORE.INTER.norm>
-0.463915

>  <SCORE.INTRA>
-1.42437

>  <SCORE.INTRA.DIHEDRAL>
-4.071

>  <SCORE.INTRA.DIHEDRAL.0>
4.88619

>  <SCORE.INTRA.POLAR>
0

>  <SCORE.INTRA.POLAR.0>
0

>  <SCORE.INTRA.REPUL>
0

>  <SCORE.INTRA.REPUL.0>
0

>  <SCORE.INTRA.SOLV>
-0.956484

>  <SCORE.INTRA.SOLV.lig_0>
-73.8187

>  <SCORE.INTRA.VDW>
1.08937

>  <SCORE.INTRA.VDW.0>
-1.32335

>  <SCORE.INTRA.norm>
-0.0647443

>  <SCORE.RESTR>
0

>  <SCORE.RESTR.CAVITY>
0

>  <SCORE.RESTR.norm>
0

>  <SCORE.SYSTEM>
0

>  <SCORE.SYSTEM.CONST>
0

>  <SCORE.SYSTEM.DIHEDRAL>
0

>  <SCORE.SYSTEM.SOLV>
0

>  <SCORE.SYSTEM.norm>
0

>  <SCORE.heavy>
22

>  <SCORE.norm>
-0.528659

>  <RMSD>
6.586

$$$$
2fcx_lig
 OpenBabel11021811433D
libRbt.so/2013.1/901 2013/11/27
 22 23  0  0  0  0  0  0  0  0999 V2000
   26.0124    7.2895   17.7902 N   0  0  0  0  0  0  0  0  0  0  0  0
   24.7284   10.4418   14.2562 N   0  0  0  0  0  0  0  0  0  0  0  0
   25.4943    7.6007   10.3577 N   0  0  0  0  0  0  0  0  0  0  0  0
   29.0145    8.1479   14.0393 O   0  0  0  0  0  0  0  0  0  0  0  0
   28.0661    8.7459   14.9273 C   0  0  2  0  0  0  0  0  0  0  0  0
   29.5199   12.2173   12.5331 N   0  0  0  0  0  0  0  0  0  0  0  0
   28.6956    7.2882   16.7265 O   0  0  0  0  0  0  0  0  0  0  0  0
   27.5744    7.7100   15.9410 C   0  0  1  0  0  0  0  0  0  0  0  0
   27.3999   10.4479   13.3178 O   0  0  0  0  0  0  0  0  0  0  0  0
   26.5059    8.3122   16.8563 C   0  0  1  0  0  0  0  0  0  0  0  0
   27.7159    9.1610   11.3850 O   0  0  0  0  0  0  0  0  0  0  0  0
   25.3308    8.8489   16.0319 C   0  0  0  0  0  0  0  0  0  0  0  0
   26.0332   11.6348    9.2101 O   0  0  0  0  0  0  0  0  0  0  0  0
   25.8412    9.9158   15.0594 C   0  0  1  0  0  0  0  0  0  0  0  0
   28.2937   13.0981   10.0928 O   0  0  0  0  0  0  0  0  0  0  0  0
   26.9149    9.3584   14.1202 C   0  0  2  0  0  0  0  0  0  0  0  0
   28.3564   10.0465   12.3220 C   0  0  1  0  0  0  0  0  0  0  0  0
   26.6369    9.7684   10.6462 C   0  0  2  0  0  0  0  0  0  0  0  0
   26.0400    8.7698    9.6521 C   0  0  0  0  0  0  0  0  0  0  0  0
   27.1296   10.9899    9.8655 C   0  0  2  0  0  0  0  0  0  0  0  0
   27.7775   11.9868   10.8278 C   0  0  1  0  0  0  0  0  0  0  0  0
   28.9015   11.2778   11.5880 C   0  0  1  0  0  0  0  0  0  0  0  0
  5  4  1  6  0  0  0
  5  8  1  0  0  0  0
  5 16  1  0  0  0  0
  8  7  1  1  0  0  0
  8 10  1  0  0  0  0
 10  1  1  1  0  0  0
 10 12  1  0  0  0  0
 11 18  1  0  0  0  0
 12 14  1  0  0  0  0
 14  2  1  6  0  0  0
 14 16  1  0  0  0  0
 16  9  1  1  0  0  0
 17  9  1  1  0  0  0
 17 11  1  0  0  0  0
 17 22  1  0  0  0  0
 18 19  1  6  0  0  0
 18 20  1  0  0  0  0
 19  3  1  0  0  0  0
 20 13  1  1  0  0  0
 20 21  1  0  0  0  0
 21 15  1  6  0  0  0
 21 22  1  0  0  0  0
 22  6  1  1  0  0  0
M  END
>  <CHROM.1>
63.55390710,63.73501421,60.92516406,27.20094627,9.69103164,13.04218918,1.63974069
0.62137805,1.99919034

>  <Name>
2fcx_lig

>  <RI>
1.15031e+07

>  <Rbt.Current_Directory>
/home/itssahil/PROJECTS/Mol_Feturizer/New_Systems/rnas/2fcx

>  <Rbt.Executable>
rbdock ($Id: //depot/dev/client3/rdock/2013.1/src/exe/rbdock.cxx#4 $)

>  <Rbt.Library>
libRbt.so (2013.1, Build901 2013/11/27)

>  <Rbt.Parameter_File>
/export/apps/rDock/src/rDock_2013.1_src/data/scripts/dock_solv.prm

>  <Rbt.Receptor>
prm/pocket_docking_8.prm

>  <SCORE>
-11.5485

>  <SCORE.INTER>
-9.72495

>  <SCORE.INTER.CONST>
1

>  <SCORE.INTER.POLAR>
-1.26706

>  <SCORE.INTER.ROT>
3

>  <SCORE.INTER.SOLV>
12.1705

>  <SCORE.INTER.VDW>
-11.9166

>  <SCORE.INTER.norm>
-0.442043

>  <SCORE.INTRA>
-1.82354

>  <SCORE.INTRA.DIHEDRAL>
-4.7441

>  <SCORE.INTRA.DIHEDRAL.0>
4.88619

>  <SCORE.INTRA.POLAR>
0

>  <SCORE.INTRA.POLAR.0>
0

>  <SCORE.INTRA.REPUL>
0

>  <SCORE.INTRA.REPUL.0>
0

>  <SCORE.INTRA.SOLV>
-0.942202

>  <SCORE.INTRA.SOLV.lig_0>
-73.8187

>  <SCORE.INTRA.VDW>
1.01961

>  <SCORE.INTRA.VDW.0>
-1.32335

>  <SCORE.INTRA.norm>
-0.0828882

>  <SCORE.RESTR>
0

>  <SCORE.RESTR.CAVITY>
0

>  <SCORE.RESTR.norm>
0

>  <SCORE.SYSTEM>
0

>  <SCORE.SYSTEM.CONST>
0

>  <SCORE.SYSTEM.DIHEDRAL>
0

>  <SCORE.SYSTEM.SOLV>
0

>  <SCORE.SYSTEM.norm>
0

>  <SCORE.heavy>
22

>  <SCORE.norm>
-0.524931

>  <RMSD>
6.594

$$$$
2fcx_lig
 OpenBabel11021811433D
libRbt.so/2013.1/901 2013/11/27
 22 23  0  0  0  0  0  0  0  0999 V2000
   34.5430   16.8010   11.1320 N   0  0  0  0  0  0  0  0  0  0  0  0
   33.6134   13.8869   14.9686 N   0  0  0  0  0  0  0  0  0  0  0  0
   29.5746   11.9416   13.8618 N   0  0  0  0  0  0  0  0  0  0  0  0
   30.3789   17.2688   13.6341 O   0  0  0  0  0  0  0  0  0  0  0  0
   31.7761   16.9858   13.7484 C   0  0  2  0  0  0  0  0  0  0  0  0
   30.2792   16.9821   17.9350 N   0  0  0  0  0  0  0  0  0  0  0  0
   32.3149   18.4540   11.9284 O   0  0  0  0  0  0  0  0  0  0  0  0
   32.4462   17.0999   12.3771 C   0  0  1  0  0  0  0  0  0  0  0  0
   31.4909   15.5994   15.7303 O   0  0  0  0  0  0  0  0  0  0  0  0
   33.9290   16.7318   12.4662 C   0  0  1  0  0  0  0  0  0  0  0  0
   29.4596   14.5397   15.2375 O   0  0  0  0  0  0  0  0  0  0  0  0
   34.0996   15.3152   13.0251 C   0  0  0  0  0  0  0  0  0  0  0  0
   29.7799   12.1575   18.0490 O   0  0  0  0  0  0  0  0  0  0  0  0
   33.4628   15.2403   14.4156 C   0  0  1  0  0  0  0  0  0  0  0  0
   29.5733   14.6296   19.4188 O   0  0  0  0  0  0  0  0  0  0  0  0
   31.9748   15.6011   14.3768 C   0  0  2  0  0  0  0  0  0  0  0  0
   30.0603   15.7067   15.8288 C   0  0  1  0  0  0  0  0  0  0  0  0
   29.7908   13.3059   15.9062 C   0  0  2  0  0  0  0  0  0  0  0  0
   29.0830   12.1267   15.2352 C   0  0  0  0  0  0  0  0  0  0  0  0
   29.3652   13.3505   17.3763 C   0  0  2  0  0  0  0  0  0  0  0  0
   30.0189   14.5505   18.0636 C   0  0  1  0  0  0  0  0  0  0  0  0
   29.6404   15.8219   17.2993 C   0  0  1  0  0  0  0  0  0  0  0  0
  5  4  1  6  0  0  0
  5  8  1  0  0  0  0
  5 16  1  0  0  0  0
  8  7  1  1  0  0  0
  8 10  1  0  0  0  0
 10  1  1  6  0  0  0
 10 12  1  0  0  0  0
 11 18  1  0  0  0  0
 12 14  1  0  0  0  0
 14  2  1  6  0  0  0
 14 16  1  0  0  0  0
 16  9  1  1  0  0  0
 17  9  1  1  0  0  0
 17 11  1  0  0  0  0
 17 22  1  0  0  0  0
 18 19  1  6  0  0  0
 18 20  1  0  0  0  0
 19  3  1  0  0  0  0
 20 13  1  1  0  0  0
 20 21  1  0  0  0  0
 21 15  1  1  0  0  0
 21 22  1  0  0  0  0
 22  6  1  1  0  0  0
M  END
>  <CHROM.1>
69.23496951,64.30218991,64.91671846,31.18307609,15.18780585,15.11057971,-0.25191721
-0.99534303,-2.88052682

>  <Name>
2fcx_lig

>  <RI>
4.08374e+07

>  <Rbt.Current_Directory>
/home/itssahil/PROJECTS/Mol_Feturizer/New_Systems/rnas/2fcx

>  <Rbt.Executable>
rbdock ($Id: //depot/dev/client3/rdock/2013.1/src/exe/rbdock.cxx#4 $)

>  <Rbt.Library>
libRbt.so (2013.1, Build901 2013/11/27)

>  <Rbt.Parameter_File>
/export/apps/rDock/src/rDock_2013.1_src/data/scripts/dock_solv.prm

>  <Rbt.Receptor>
prm/pocket_docking_7.prm

>  <SCORE>
-13.8677

>  <SCORE.INTER>
-11.7654

>  <SCORE.INTER.CONST>
1

>  <SCORE.INTER.POLAR>
-1.50947

>  <SCORE.INTER.ROT>
3

>  <SCORE.INTER.SOLV>
13.2354

>  <SCORE.INTER.VDW>
-12.8238

>  <SCORE.INTER.norm>
-0.534791

>  <SCORE.INTRA>
-2.10229

>  <SCORE.INTRA.DIHEDRAL>
-4.28971

>  <SCORE.INTRA.DIHEDRAL.0>
4.88619

>  <SCORE.INTRA.POLAR>
0

>  <SCORE.INTRA.POLAR.0>
0

>  <SCORE.INTRA.REPUL>
0

>  <SCORE.INTRA.REPUL.0>
0

>  <SCORE.INTRA.SOLV>
-0.818268

>  <SCORE.INTRA.SOLV.lig_0>
-73.8187

>  <SCORE.INTRA.VDW>
0.451696

>  <SCORE.INTRA.VDW.0>
-1.32335

>  <SCORE.INTRA.norm>
-0.0955589

>  <SCORE.RESTR>
0

>  <SCORE.RESTR.CAVITY>
0

>  <SCORE.RESTR.norm>
0

>  <SCORE.SYSTEM>
0

>  <SCORE.SYSTEM.CONST>
0

>  <SCORE.SYSTEM.DIHEDRAL>
0

>  <SCORE.SYSTEM.SOLV>
0

>  <SCORE.SYSTEM.norm>
0

>  <SCORE.heavy>
22

>  <SCORE.norm>
-0.63035

>  <RMSD>
6.598

$$$$
2fcx_lig
 OpenBabel11021811433D
libRbt.so/2013.1/901 2013/11/27
 22 23  0  0  0  0  0  0  0  0999 V2000
   27.1169    9.3456   17.9841 N   0  0  0  0  0  0  0  0  0  0  0  0
   29.2283    9.8292   13.5815 N   0  0  0  0  0  0  0  0  0  0  0  0
   28.3249   12.9175   10.0910 N   0  0  0  0  0  0  0  0  0  0  0  0
   24.5170    8.6569   13.9116 O   0  0  0  0  0  0  0  0  0  0  0  0
   25.8004    8.4707   14.5147 C   0  0  2  0  0  0  0  0  0  0  0  0
   26.1390    6.7414   10.3512 N   0  0  0  0  0  0  0  0  0  0  0  0
   24.8334    8.1480   16.6870 O   0  0  0  0  0  0  0  0  0  0  0  0
   25.7710    8.9561   15.9659 C   0  0  1  0  0  0  0  0  0  0  0  0
   26.9859    8.5764   12.3900 O   0  0  0  0  0  0  0  0  0  0  0  0
   27.1547    8.8303   16.6076 C   0  0  1  0  0  0  0  0  0  0  0  0
   25.9157   10.3454   11.2866 O   0  0  0  0  0  0  0  0  0  0  0  0
   28.1945    9.6187   15.8042 C   0  0  0  0  0  0  0  0  0  0  0  0
   28.5582   10.6144    8.7124 O   0  0  0  0  0  0  0  0  0  0  0  0
   28.2377    9.0832   14.3703 C   0  0  1  0  0  0  0  0  0  0  0  0
   27.5153    8.0320    8.1892 O   0  0  0  0  0  0  0  0  0  0  0  0
   26.8719    9.1888   13.6853 C   0  0  2  0  0  0  0  0  0  0  0  0
   25.9141    8.9210   11.4954 C   0  0  1  0  0  0  0  0  0  0  0  0
   27.1102   10.8445   10.6517 C   0  0  2  0  0  0  0  0  0  0  0  0
   27.0105   12.3563   10.4370 C   0  0  0  0  0  0  0  0  0  0  0  0
   27.3242   10.1773    9.2903 C   0  0  2  0  0  0  0  0  0  0  0  0
   27.3786    8.6588    9.4659 C   0  0  1  0  0  0  0  0  0  0  0  0
   26.0922    8.1966   10.1555 C   0  0  1  0  0  0  0  0  0  0  0  0
  5  4  1  6  0  0  0
  5  8  1  0  0  0  0
  5 16  1  0  0  0  0
  8  7  1  1  0  0  0
  8 10  1  0  0  0  0
 10  1  1  1  0  0  0
 10 12  1  0  0  0  0
 11 18  1  0  0  0  0
 12 14  1  0  0  0  0
 14  2  1  6  0  0  0
 14 16  1  0  0  0  0
 16  9  1  6  0  0  0
 17  9  1  1  0  0  0
 17 11  1  0  0  0  0
 17 22  1  0  0  0  0
 18 19  1  6  0  0  0
 18 20  1  0  0  0  0
 19  3  1  0  0  0  0
 20 13  1  1  0  0  0
 20 21  1  0  0  0  0
 21 15  1  6  0  0  0
 21 22  1  0  0  0  0
 22  6  1  1  0  0  0
M  END
>  <CHROM.1>
75.93463747,60.91672165,166.62176564,26.89340690,9.38256148,12.50006468,-1.81549362
-0.96394186,-1.61558866

>  <Name>
2fcx_lig

>  <RI>
0

>  <Rbt.Current_Directory>
/home/itssahil/PROJECTS/Mol_Feturizer/New_Systems/rnas/2fcx

>  <Rbt.Executable>
rbdock ($Id: //depot/dev/client3/rdock/2013.1/src/exe/rbdock.cxx#4 $)

>  <Rbt.Library>
libRbt.so (2013.1, Build901 2013/11/27)

>  <Rbt.Parameter_File>
/export/apps/rDock/src/rDock_2013.1_src/data/scripts/dock_solv.prm

>  <Rbt.Receptor>
prm/pocket_docking_6.prm

>  <SCORE>
-10.9736

>  <SCORE.INTER>
-9.87721

>  <SCORE.INTER.CONST>
1

>  <SCORE.INTER.POLAR>
-1.70302

>  <SCORE.INTER.ROT>
3

>  <SCORE.INTER.SOLV>
10.6327

>  <SCORE.INTER.VDW>
-10.0523

>  <SCORE.INTER.norm>
-0.448964

>  <SCORE.INTRA>
-1.09644

>  <SCORE.INTRA.DIHEDRAL>
-3.06471

>  <SCORE.INTRA.DIHEDRAL.0>
4.88619

>  <SCORE.INTRA.POLAR>
0

>  <SCORE.INTRA.POLAR.0>
0

>  <SCORE.INTRA.REPUL>
0

>  <SCORE.INTRA.REPUL.0>
0

>  <SCORE.INTRA.SOLV>
0.400197

>  <SCORE.INTRA.SOLV.lig_0>
-73.8187

>  <SCORE.INTRA.VDW>
0.23582

>  <SCORE.INTRA.VDW.0>
-1.32335

>  <SCORE.INTRA.norm>
-0.0498381

>  <SCORE.RESTR>
0

>  <SCORE.RESTR.CAVITY>
0

>  <SCORE.RESTR.norm>
0

>  <SCORE.SYSTEM>
0

>  <SCORE.SYSTEM.CONST>
0

>  <SCORE.SYSTEM.DIHEDRAL>
0

>  <SCORE.SYSTEM.SOLV>
0

>  <SCORE.SYSTEM.norm>
0

>  <SCORE.heavy>
22

>  <SCORE.norm>
-0.498802

>  <RMSD>
6.604

$$$$
2fcx_lig
 OpenBabel11021811433D
libRbt.so/2013.1/901 2013/11/27
 22 23  0  0  0  0  0  0  0  0999 V2000
   26.8841    8.5328   17.1309 N   0  0  0  0  0  0  0  0  0  0  0  0
   24.7851    8.2472   12.7052 N   0  0  0  0  0  0  0  0  0  0  0  0
   27.8172    5.4906   10.4054 N   0  0  0  0  0  0  0  0  0  0  0  0
   29.3977    9.7398   13.1254 O   0  0  0  0  0  0  0  0  0  0  0  0
   28.1080    9.7800   13.7425 C   0  0  2  0  0  0  0  0  0  0  0  0
   27.6000   11.9233    9.8611 N   0  0  0  0  0  0  0  0  0  0  0  0
   29.0628    9.9988   15.9331 O   0  0  0  0  0  0  0  0  0  0  0  0
   28.1835    9.1832   15.1498 C   0  0  1  0  0  0  0  0  0  0  0  0
   26.9194    9.7566   11.6170 O   0  0  0  0  0  0  0  0  0  0  0  0
   26.7986    9.1527   15.8005 C   0  0  1  0  0  0  0  0  0  0  0  0
   28.2427    8.2835   10.3636 O   0  0  0  0  0  0  0  0  0  0  0  0
   25.8152    8.3555   14.9369 C   0  0  0  0  0  0  0  0  0  0  0  0
   25.7485    8.0250    7.6445 O   0  0  0  0  0  0  0  0  0  0  0  0
   25.7224    8.9998   13.5509 C   0  0  1  0  0  0  0  0  0  0  0  0
   26.4752   10.7597    7.4915 O   0  0  0  0  0  0  0  0  0  0  0  0
   27.0876    9.0524   12.8586 C   0  0  2  0  0  0  0  0  0  0  0  0
   28.0573    9.6598   10.7430 C   0  0  1  0  0  0  0  0  0  0  0  0
   27.1441    7.7282    9.6129 C   0  0  2  0  0  0  0  0  0  0  0  0
   27.4412    6.2787    9.2222 C   0  0  0  0  0  0  0  0  0  0  0  0
   26.8961    8.5313    8.3332 C   0  0  2  0  0  0  0  0  0  0  0  0
   26.6444    9.9976    8.6882 C   0  0  1  0  0  0  0  0  0  0  0  0
   27.8369   10.5208    9.4933 C   0  0  1  0  0  0  0  0  0  0  0  0
  5  4  1  6  0  0  0
  5  8  1  0  0  0  0
  5 16  1  0  0  0  0
  8  7  1  1  0  0  0
  8 10  1  0  0  0  0
 10  1  1  1  0  0  0
 10 12  1  0  0  0  0
 11 18  1  0  0  0  0
 12 14  1  0  0  0  0
 14  2  1  6  0  0  0
 14 16  1  0  0  0  0
 16  9  1  6  0  0  0
 17  9  1  1  0  0  0
 17 11  1  0  0  0  0
 17 22  1  0  0  0  0
 18 19  1  6  0  0  0
 18 20  1  0  0  0  0
 19  3  1  0  0  0  0
 20 13  1  1  0  0  0
 20 21  1  0  0  0  0
 21 15  1  6  0  0  0
 21 22  1  0  0  0  0
 22  6  1  1  0  0  0
M  END
>  <CHROM.1>
70.92331307,63.53453931,52.78425358,27.22751031,9.00783463,11.71668133,1.32152671
1.25177158,1.77697205

>  <Name>
2fcx_lig

>  <RI>
4.08374e+07

>  <Rbt.Current_Directory>
/home/itssahil/PROJECTS/Mol_Feturizer/New_Systems/rnas/2fcx

>  <Rbt.Executable>
rbdock ($Id: //depot/dev/client3/rdock/2013.1/src/exe/rbdock.cxx#4 $)

>  <Rbt.Library>
libRbt.so (2013.1, Build901 2013/11/27)

>  <Rbt.Parameter_File>
/export/apps/rDock/src/rDock_2013.1_src/data/scripts/dock_solv.prm

>  <Rbt.Receptor>
prm/pocket_docking_7.prm

>  <SCORE>
-10.9185

>  <SCORE.INTER>
-8.9143

>  <SCORE.INTER.CONST>
1

>  <SCORE.INTER.POLAR>
-1.73633

>  <SCORE.INTER.ROT>
3

>  <SCORE.INTER.SOLV>
10.8289

>  <SCORE.INTER.VDW>
-9.36472

>  <SCORE.INTER.norm>
-0.405195

>  <SCORE.INTRA>
-2.00433

>  <SCORE.INTRA.DIHEDRAL>
-4.05356

>  <SCORE.INTRA.DIHEDRAL.0>
4.88619

>  <SCORE.INTRA.POLAR>
0

>  <SCORE.INTRA.POLAR.0>
0

>  <SCORE.INTRA.REPUL>
0

>  <SCORE.INTRA.REPUL.0>
0

>  <SCORE.INTRA.SOLV>
-0.678888

>  <SCORE.INTRA.SOLV.lig_0>
-73.8187

>  <SCORE.INTRA.VDW>
0.3619

>  <SCORE.INTRA.VDW.0>
-1.32335

>  <SCORE.INTRA.norm>
-0.0911057

>  <SCORE.RESTR>
8.65677e-05

>  <SCORE.RESTR.CAVITY>
8.65677e-05

>  <SCORE.RESTR.norm>
3.9349e-06

>  <SCORE.SYSTEM>
0

>  <SCORE.SYSTEM.CONST>
0

>  <SCORE.SYSTEM.DIHEDRAL>
0

>  <SCORE.SYSTEM.SOLV>
0

>  <SCORE.SYSTEM.norm>
0

>  <SCORE.heavy>
22

>  <SCORE.norm>
-0.496297

>  <RMSD>
6.612

$$$$
2fcx_lig
 OpenBabel11021811433D
libRbt.so/2013.1/901 2013/11/27
 22 23  0  0  0  0  0  0  0  0999 V2000
   26.8256    8.1986   17.7714 N   0  0  0  0  0  0  0  0  0  0  0  0
   25.2821   10.7328   13.8637 N   0  0  0  0  0  0  0  0  0  0  0  0
   28.8301    9.7249    9.1110 N   0  0  0  0  0  0  0  0  0  0  0  0
   30.0438   10.3213   14.7786 O   0  0  0  0  0  0  0  0  0  0  0  0
   28.7568   10.4611   15.3867 C   0  0  2  0  0  0  0  0  0  0  0  0
   29.3871   14.2146   13.0591 N   0  0  0  0  0  0  0  0  0  0  0  0
   29.4634    9.2966   17.3623 O   0  0  0  0  0  0  0  0  0  0  0  0
   28.4861    9.2749   16.3152 C   0  0  1  0  0  0  0  0  0  0  0  0
   27.8771   11.8278   13.5731 O   0  0  0  0  0  0  0  0  0  0  0  0
   27.0842    9.3702   16.9216 C   0  0  1  0  0  0  0  0  0  0  0  0
   28.7970   10.8000   11.6786 O   0  0  0  0  0  0  0  0  0  0  0  0
   26.0232    9.4344   15.8178 C   0  0  0  0  0  0  0  0  0  0  0  0
   26.6535   12.7079    9.3448 O   0  0  0  0  0  0  0  0  0  0  0  0
   26.2886   10.6548   14.9319 C   0  0  1  0  0  0  0  0  0  0  0  0
   28.2140   14.7719   10.5003 O   0  0  0  0  0  0  0  0  0  0  0  0
   27.6832   10.6036   14.3010 C   0  0  2  0  0  0  0  0  0  0  0  0
   29.0136   11.7987   12.6926 C   0  0  1  0  0  0  0  0  0  0  0  0
   27.6665   11.0660   10.8242 C   0  0  2  0  0  0  0  0  0  0  0  0
   27.5336    9.9768    9.7575 C   0  0  0  0  0  0  0  0  0  0  0  0
   27.8215   12.4158   10.1182 C   0  0  2  0  0  0  0  0  0  0  0  0
   28.0064   13.5211   11.1592 C   0  0  1  0  0  0  0  0  0  0  0  0
   29.2096   13.1722   12.0392 C   0  0  1  0  0  0  0  0  0  0  0  0
  5  4  1  6  0  0  0
  5  8  1  0  0  0  0
  5 16  1  0  0  0  0
  8  7  1  1  0  0  0
  8 10  1  0  0  0  0
 10  1  1  1  0  0  0
 10 12  1  0  0  0  0
 11 18  1  0  0  0  0
 12 14  1  0  0  0  0
 14  2  1  6  0  0  0
 14 16  1  0  0  0  0
 16  9  1  1  0  0  0
 17  9  1  1  0  0  0
 17 11  1  0  0  0  0
 17 22  1  0  0  0  0
 18 19  1  6  0  0  0
 18 20  1  0  0  0  0
 19  3  1  0  0  0  0
 20 13  1  1  0  0  0
 20 21  1  0  0  0  0
 21 15  1  6  0  0  0
 21 22  1  0  0  0  0
 22  6  1  1  0  0  0
M  END
>  <CHROM.1>
72.51250374,63.62973801,-48.11738016,27.97184385,11.12222290,13.21977319
1.64593342,0.91736573,1.97683598

>  <Name>
2fcx_lig

>  <RI>
1.55453e+07

>  <Rbt.Current_Directory>
/home/itssahil/PROJECTS/Mol_Feturizer/New_Systems/rnas/2fcx

>  <Rbt.Executable>
rbdock ($Id: //depot/dev/client3/rdock/2013.1/src/exe/rbdock.cxx#4 $)

>  <Rbt.Library>
libRbt.so (2013.1, Build901 2013/11/27)

>  <Rbt.Parameter_File>
/export/apps/rDock/src/rDock_2013.1_src/data/scripts/dock_solv.prm

>  <Rbt.Receptor>
prm/pocket_docking_4.prm

>  <SCORE>
-7.95016

>  <SCORE.INTER>
-6.6884

>  <SCORE.INTER.CONST>
1

>  <SCORE.INTER.POLAR>
-1.02294

>  <SCORE.INTER.ROT>
3

>  <SCORE.INTER.SOLV>
11.7141

>  <SCORE.INTER.VDW>
-10.5538

>  <SCORE.INTER.norm>
-0.304018

>  <SCORE.INTRA>
-1.26176

>  <SCORE.INTRA.DIHEDRAL>
-3.58001

>  <SCORE.INTRA.DIHEDRAL.0>
4.88619

>  <SCORE.INTRA.POLAR>
0

>  <SCORE.INTRA.POLAR.0>
0

>  <SCORE.INTRA.REPUL>
0

>  <SCORE.INTRA.REPUL.0>
0

>  <SCORE.INTRA.SOLV>
0.496963

>  <SCORE.INTRA.SOLV.lig_0>
-73.8187

>  <SCORE.INTRA.VDW>
0.279765

>  <SCORE.INTRA.VDW.0>
-1.32335

>  <SCORE.INTRA.norm>
-0.0573527

>  <SCORE.RESTR>
0

>  <SCORE.RESTR.CAVITY>
0

>  <SCORE.RESTR.norm>
0

>  <SCORE.SYSTEM>
0

>  <SCORE.SYSTEM.CONST>
0

>  <SCORE.SYSTEM.DIHEDRAL>
0

>  <SCORE.SYSTEM.SOLV>
0

>  <SCORE.SYSTEM.norm>
0

>  <SCORE.heavy>
22

>  <SCORE.norm>
-0.361371

>  <RMSD>
6.621

$$$$
2fcx_lig
 OpenBabel11021811433D
libRbt.so/2013.1/901 2013/11/27
 22 23  0  0  0  0  0  0  0  0999 V2000
   26.2552    7.5096   17.8083 N   0  0  0  0  0  0  0  0  0  0  0  0
   28.6425    8.3011   13.5953 N   0  0  0  0  0  0  0  0  0  0  0  0
   29.7503   12.4721   12.8286 N   0  0  0  0  0  0  0  0  0  0  0  0
   24.4210   10.5588   14.4681 O   0  0  0  0  0  0  0  0  0  0  0  0
   25.1385    9.3355   14.6533 C   0  0  2  0  0  0  0  0  0  0  0  0
   24.2750    9.8165   10.5421 N   0  0  0  0  0  0  0  0  0  0  0  0
   23.9565    8.8439   16.6829 O   0  0  0  0  0  0  0  0  0  0  0  0
   25.2719    9.0291   16.1469 C   0  0  1  0  0  0  0  0  0  0  0  0
   26.3223    9.5288   12.5337 O   0  0  0  0  0  0  0  0  0  0  0  0
   26.0981    7.7600   16.3681 C   0  0  1  0  0  0  0  0  0  0  0  0
   27.0137   11.7411   12.1879 O   0  0  0  0  0  0  0  0  0  0  0  0
   27.4834    7.9008   15.7284 C   0  0  0  0  0  0  0  0  0  0  0  0
   28.7476   10.9254    9.0241 O   0  0  0  0  0  0  0  0  0  0  0  0
   27.3233    8.1598   14.2277 C   0  0  1  0  0  0  0  0  0  0  0  0
   26.0515   10.3641    8.3562 O   0  0  0  0  0  0  0  0  0  0  0  0
   26.5016    9.4234   13.9560 C   0  0  2  0  0  0  0  0  0  0  0  0
   25.8991   10.8340   12.1033 C   0  0  1  0  0  0  0  0  0  0  0  0
   28.1158   11.3995   11.3234 C   0  0  2  0  0  0  0  0  0  0  0  0
   29.2368   12.4333   11.4512 C   0  0  0  0  0  0  0  0  0  0  0  0
   27.6677   11.3527    9.8601 C   0  0  2  0  0  0  0  0  0  0  0  0
   26.5121   10.3622    9.7087 C   0  0  1  0  0  0  0  0  0  0  0  0
   25.3846   10.7720   10.6600 C   0  0  1  0  0  0  0  0  0  0  0  0
  5  4  1  1  0  0  0
  5  8  1  0  0  0  0
  5 16  1  0  0  0  0
  8  7  1  6  0  0  0
  8 10  1  0  0  0  0
 10  1  1  1  0  0  0
 10 12  1  0  0  0  0
 11 18  1  0  0  0  0
 12 14  1  0  0  0  0
 14  2  1  1  0  0  0
 14 16  1  0  0  0  0
 16  9  1  6  0  0  0
 17  9  1  6  0  0  0
 17 11  1  0  0  0  0
 17 22  1  0  0  0  0
 18 19  1  6  0  0  0
 18 20  1  0  0  0  0
 19  3  1  0  0  0  0
 20 13  1  6  0  0  0
 20 21  1  0  0  0  0
 21 15  1  6  0  0  0
 21 22  1  0  0  0  0
 22  6  1  1  0  0  0
M  END
>  <CHROM.1>
75.84487922,73.99532273,61.07848896,26.62624419,9.96453558,12.89213425,-1.82602246
-0.22170289,-1.20797740

>  <Name>
2fcx_lig

>  <RI>
0

>  <Rbt.Current_Directory>
/home/itssahil/PROJECTS/Mol_Feturizer/New_Systems/rnas/2fcx

>  <Rbt.Executable>
rbdock ($Id: //depot/dev/client3/rdock/2013.1/src/exe/rbdock.cxx#4 $)

>  <Rbt.Library>
libRbt.so (2013.1, Build901 2013/11/27)

>  <Rbt.Parameter_File>
/export/apps/rDock/src/rDock_2013.1_src/data/scripts/dock_solv.prm

>  <Rbt.Receptor>
prm/pocket_docking_6.prm

>  <SCORE>
-11.2202

>  <SCORE.INTER>
-9.62551

>  <SCORE.INTER.CONST>
1

>  <SCORE.INTER.POLAR>
-1.15956

>  <SCORE.INTER.ROT>
3

>  <SCORE.INTER.SOLV>
14.8106

>  <SCORE.INTER.VDW>
-13.0887

>  <SCORE.INTER.norm>
-0.437523

>  <SCORE.INTRA>
-1.59465

>  <SCORE.INTRA.DIHEDRAL>
-2.78079

>  <SCORE.INTRA.DIHEDRAL.0>
4.88619

>  <SCORE.INTRA.POLAR>
0

>  <SCORE.INTRA.POLAR.0>
0

>  <SCORE.INTRA.REPUL>
0

>  <SCORE.INTRA.REPUL.0>
0

>  <SCORE.INTRA.SOLV>
-0.40368

>  <SCORE.INTRA.SOLV.lig_0>
-73.8187

>  <SCORE.INTRA.VDW>
-0.00241191

>  <SCORE.INTRA.VDW.0>
-1.32335

>  <SCORE.INTRA.norm>
-0.0724839

>  <SCORE.RESTR>
0

>  <SCORE.RESTR.CAVITY>
0

>  <SCORE.RESTR.norm>
0

>  <SCORE.SYSTEM>
0

>  <SCORE.SYSTEM.CONST>
0

>  <SCORE.SYSTEM.DIHEDRAL>
0

>  <SCORE.SYSTEM.SOLV>
0

>  <SCORE.SYSTEM.norm>
0

>  <SCORE.heavy>
22

>  <SCORE.norm>
-0.510007

>  <RMSD>
6.621

$$$$
2fcx_lig
 OpenBabel11021811433D
libRbt.so/2013.1/901 2013/11/27
 22 23  0  0  0  0  0  0  0  0999 V2000
   26.8921    7.4781   18.6864 N   0  0  0  0  0  0  0  0  0  0  0  0
   27.7095    7.3221   13.8509 N   0  0  0  0  0  0  0  0  0  0  0  0
   28.4141   10.8359    8.8435 N   0  0  0  0  0  0  0  0  0  0  0  0
   28.7283   11.3603   16.3678 O   0  0  0  0  0  0  0  0  0  0  0  0
   27.8129   10.2672   16.2557 C   0  0  2  0  0  0  0  0  0  0  0  0
   30.7785   10.7581   14.3576 N   0  0  0  0  0  0  0  0  0  0  0  0
   27.3055   10.3334   18.6001 O   0  0  0  0  0  0  0  0  0  0  0  0
   27.7872    9.4711   17.5626 C   0  0  1  0  0  0  0  0  0  0  0  0
   28.0256   10.1359   13.8331 O   0  0  0  0  0  0  0  0  0  0  0  0
   26.8658    8.2554   17.4387 C   0  0  1  0  0  0  0  0  0  0  0  0
   28.4641    9.9870   11.5359 O   0  0  0  0  0  0  0  0  0  0  0  0
   27.3107    7.3585   16.2785 C   0  0  0  0  0  0  0  0  0  0  0  0
   28.6284   13.6583   11.1168 O   0  0  0  0  0  0  0  0  0  0  0  0
   27.2827    8.1647   14.9769 C   0  0  1  0  0  0  0  0  0  0  0  0
   30.8411   13.1810   12.8215 O   0  0  0  0  0  0  0  0  0  0  0  0
   28.1925    9.3944   15.0532 C   0  0  2  0  0  0  0  0  0  0  0  0
   29.0379    9.8594   12.8500 C   0  0  1  0  0  0  0  0  0  0  0  0
   27.9931   11.3143   11.2271 C   0  0  2  0  0  0  0  0  0  0  0  0
   27.4345   11.3663    9.8034 C   0  0  0  0  0  0  0  0  0  0  0  0
   29.1282   12.3358   11.3372 C   0  0  2  0  0  0  0  0  0  0  0  0
   29.7411   12.2730   12.7372 C   0  0  1  0  0  0  0  0  0  0  0  0
   30.2068   10.8396   13.0068 C   0  0  1  0  0  0  0  0  0  0  0  0
  5  4  1  1  0  0  0
  5  8  1  0  0  0  0
  5 16  1  0  0  0  0
  8  7  1  1  0  0  0
  8 10  1  0  0  0  0
 10  1  1  1  0  0  0
 10 12  1  0  0  0  0
 11 18  1  0  0  0  0
 12 14  1  0  0  0  0
 14  2  1  6  0  0  0
 14 16  1  0  0  0  0
 16  9  1  6  0  0  0
 17  9  1  1  0  0  0
 17 11  1  0  0  0  0
 17 22  1  0  0  0  0
 18 19  1  6  0  0  0
 18 20  1  0  0  0  0
 19  3  1  0  0  0  0
 20 13  1  1  0  0  0
 20 21  1  0  0  0  0
 21 15  1  6  0  0  0
 21 22  1  0  0  0  0
 22  6  1  1  0  0  0
M  END
>  <CHROM.1>
142.45081639,148.19145986,-52.56989186,28.40003659,10.31718976,14.01828046
2.01693481,1.06063752,1.63698252

>  <Name>
2fcx_lig

>  <RI>
1.55453e+07

>  <Rbt.Current_Directory>
/home/itssahil/PROJECTS/Mol_Feturizer/New_Systems/rnas/2fcx

>  <Rbt.Executable>
rbdock ($Id: //depot/dev/client3/rdock/2013.1/src/exe/rbdock.cxx#4 $)

>  <Rbt.Library>
libRbt.so (2013.1, Build901 2013/11/27)

>  <Rbt.Parameter_File>
/export/apps/rDock/src/rDock_2013.1_src/data/scripts/dock_solv.prm

>  <Rbt.Receptor>
prm/pocket_docking_4.prm

>  <SCORE>
-8.60849

>  <SCORE.INTER>
-11.8802

>  <SCORE.INTER.CONST>
1

>  <SCORE.INTER.POLAR>
-1.89606

>  <SCORE.INTER.ROT>
3

>  <SCORE.INTER.SOLV>
18.5597

>  <SCORE.INTER.VDW>
-13.3865

>  <SCORE.INTER.norm>
-0.540007

>  <SCORE.INTRA>
3.27167

>  <SCORE.INTRA.DIHEDRAL>
4.23969

>  <SCORE.INTRA.DIHEDRAL.0>
4.88619

>  <SCORE.INTRA.POLAR>
0

>  <SCORE.INTRA.POLAR.0>
0

>  <SCORE.INTRA.REPUL>
0

>  <SCORE.INTRA.REPUL.0>
0

>  <SCORE.INTRA.SOLV>
3.25761

>  <SCORE.INTRA.SOLV.lig_0>
-73.8187

>  <SCORE.INTRA.VDW>
-0.476975

>  <SCORE.INTRA.VDW.0>
-1.32335

>  <SCORE.INTRA.norm>
0.148712

>  <SCORE.RESTR>
0

>  <SCORE.RESTR.CAVITY>
0

>  <SCORE.RESTR.norm>
0

>  <SCORE.SYSTEM>
0

>  <SCORE.SYSTEM.CONST>
0

>  <SCORE.SYSTEM.DIHEDRAL>
0

>  <SCORE.SYSTEM.SOLV>
0

>  <SCORE.SYSTEM.norm>
0

>  <SCORE.heavy>
22

>  <SCORE.norm>
-0.391295

>  <RMSD>
6.628

$$$$
2fcx_lig
 OpenBabel11021811433D
libRbt.so/2013.1/901 2013/11/27
 22 23  0  0  0  0  0  0  0  0999 V2000
   29.9570   11.9175   14.6749 N   0  0  0  0  0  0  0  0  0  0  0  0
   28.9245   10.9760    9.9715 N   0  0  0  0  0  0  0  0  0  0  0  0
   24.3975   10.6690    9.8295 N   0  0  0  0  0  0  0  0  0  0  0  0
   27.4361    7.9208   13.4543 O   0  0  0  0  0  0  0  0  0  0  0  0
   28.4997    8.7893   13.0545 C   0  0  2  0  0  0  0  0  0  0  0  0
   28.4066    5.5503   10.0292 N   0  0  0  0  0  0  0  0  0  0  0  0
   29.1113    9.2370   15.3313 O   0  0  0  0  0  0  0  0  0  0  0  0
   28.7132    9.8749   14.1120 C   0  0  1  0  0  0  0  0  0  0  0  0
   28.1847    8.3368   10.6823 O   0  0  0  0  0  0  0  0  0  0  0  0
   29.8006   10.8565   13.6692 C   0  0  1  0  0  0  0  0  0  0  0  0
   25.8524    8.2311   10.4799 O   0  0  0  0  0  0  0  0  0  0  0  0
   29.4378   11.4905   12.3221 C   0  0  0  0  0  0  0  0  0  0  0  0
   25.9652    8.2035    6.7829 O   0  0  0  0  0  0  0  0  0  0  0  0
   29.2760   10.3880   11.2718 C   0  0  1  0  0  0  0  0  0  0  0  0
   27.2543    5.7590    7.4094 O   0  0  0  0  0  0  0  0  0  0  0  0
   28.1954    9.3791   11.6720 C   0  0  2  0  0  0  0  0  0  0  0  0
   27.0398    7.4714   10.7720 C   0  0  1  0  0  0  0  0  0  0  0  0
   25.8133    8.7685    9.1425 C   0  0  2  0  0  0  0  0  0  0  0  0
   24.5052    9.5274    8.9087 C   0  0  0  0  0  0  0  0  0  0  0  0
   25.9146    7.6503    8.1016 C   0  0  2  0  0  0  0  0  0  0  0  0
   27.1903    6.8409    8.3404 C   0  0  1  0  0  0  0  0  0  0  0  0
   27.1760    6.3122    9.7772 C   0  0  1  0  0  0  0  0  0  0  0  0
  5  4  1  1  0  0  0
  5  8  1  0  0  0  0
  5 16  1  0  0  0  0
  8  7  1  1  0  0  0
  8 10  1  0  0  0  0
 10  1  1  1  0  0  0
 10 12  1  0  0  0  0
 11 18  1  0  0  0  0
 12 14  1  0  0  0  0
 14  2  1  6  0  0  0
 14 16  1  0  0  0  0
 16  9  1  6  0  0  0
 17  9  1  6  0  0  0
 17 11  1  0  0  0  0
 17 22  1  0  0  0  0
 18 19  1  6  0  0  0
 18 20  1  0  0  0  0
 19  3  1  0  0  0  0
 20 13  1  6  0  0  0
 20 21  1  0  0  0  0
 21 15  1  6  0  0  0
 21 22  1  0  0  0  0
 22  6  1  1  0  0  0
M  END
>  <CHROM.1>
71.94924391,64.92514076,61.94153839,27.57652806,8.79752282,10.88846758,0.73859933
-0.94666498,0.35954299

>  <Name>
2fcx_lig

>  <RI>
4.08374e+07

>  <Rbt.Current_Directory>
/home/itssahil/PROJECTS/Mol_Feturizer/New_Systems/rnas/2fcx

>  <Rbt.Executable>
rbdock ($Id: //depot/dev/client3/rdock/2013.1/src/exe/rbdock.cxx#4 $)

>  <Rbt.Library>
libRbt.so (2013.1, Build901 2013/11/27)

>  <Rbt.Parameter_File>
/export/apps/rDock/src/rDock_2013.1_src/data/scripts/dock_solv.prm

>  <Rbt.Receptor>
prm/pocket_docking_7.prm

>  <SCORE>
-12.0973

>  <SCORE.INTER>
-9.94907

>  <SCORE.INTER.CONST>
1

>  <SCORE.INTER.POLAR>
-2.09629

>  <SCORE.INTER.ROT>
3

>  <SCORE.INTER.SOLV>
12.7984

>  <SCORE.INTER.VDW>
-9.5112

>  <SCORE.INTER.norm>
-0.45223

>  <SCORE.INTRA>
-2.14825

>  <SCORE.INTRA.DIHEDRAL>
-4.06406

>  <SCORE.INTRA.DIHEDRAL.0>
4.88619

>  <SCORE.INTRA.POLAR>
0

>  <SCORE.INTRA.POLAR.0>
0

>  <SCORE.INTRA.REPUL>
0

>  <SCORE.INTRA.REPUL.0>
0

>  <SCORE.INTRA.SOLV>
-0.693229

>  <SCORE.INTRA.SOLV.lig_0>
-73.8187

>  <SCORE.INTRA.VDW>
0.230393

>  <SCORE.INTRA.VDW.0>
-1.32335

>  <SCORE.INTRA.norm>
-0.0976479

>  <SCORE.RESTR>
0

>  <SCORE.RESTR.CAVITY>
0

>  <SCORE.RESTR.norm>
0

>  <SCORE.SYSTEM>
0

>  <SCORE.SYSTEM.CONST>
0

>  <SCORE.SYSTEM.DIHEDRAL>
0

>  <SCORE.SYSTEM.SOLV>
0

>  <SCORE.SYSTEM.norm>
0

>  <SCORE.heavy>
22

>  <SCORE.norm>
-0.549878

>  <RMSD>
6.655

$$$$
2fcx_lig
 OpenBabel11021811433D
libRbt.so/2013.1/901 2013/11/27
 22 23  0  0  0  0  0  0  0  0999 V2000
   26.3415    7.7781   17.9137 N   0  0  0  0  0  0  0  0  0  0  0  0
   28.6225    8.3350   13.6054 N   0  0  0  0  0  0  0  0  0  0  0  0
   29.4627   12.9406   11.8520 N   0  0  0  0  0  0  0  0  0  0  0  0
   24.1485   10.1382   14.2477 O   0  0  0  0  0  0  0  0  0  0  0  0
   25.0134    9.0464   14.5727 C   0  0  2  0  0  0  0  0  0  0  0  0
   24.7184    8.8065    9.9739 N   0  0  0  0  0  0  0  0  0  0  0  0
   23.8967    8.6655   16.6622 O   0  0  0  0  0  0  0  0  0  0  0  0
   25.1800    8.9460   16.0908 C   0  0  1  0  0  0  0  0  0  0  0  0
   26.1695    9.1227   12.4306 O   0  0  0  0  0  0  0  0  0  0  0  0
   26.1582    7.8270   16.4558 C   0  0  1  0  0  0  0  0  0  0  0  0
   26.0770   11.4550   12.2218 O   0  0  0  0  0  0  0  0  0  0  0  0
   27.5168    8.0597   15.7860 C   0  0  0  0  0  0  0  0  0  0  0  0
   28.7139   11.5370    9.6292 O   0  0  0  0  0  0  0  0  0  0  0  0
   27.3297    8.1093   14.2671 C   0  0  1  0  0  0  0  0  0  0  0  0
   26.6587   10.1043    8.3050 O   0  0  0  0  0  0  0  0  0  0  0  0
   26.3566    9.2171   13.8526 C   0  0  2  0  0  0  0  0  0  0  0  0
   25.4239   10.2198   11.8753 C   0  0  1  0  0  0  0  0  0  0  0  0
   27.4053   11.5899   11.6775 C   0  0  2  0  0  0  0  0  0  0  0  0
   28.0076   12.9424   12.0644 C   0  0  0  0  0  0  0  0  0  0  0  0
   27.3817   11.4920   10.1497 C   0  0  2  0  0  0  0  0  0  0  0  0
   26.7385   10.1692    9.7301 C   0  0  1  0  0  0  0  0  0  0  0  0
   25.3413   10.0828   10.3501 C   0  0  1  0  0  0  0  0  0  0  0  0
  5  4  1  1  0  0  0
  5  8  1  0  0  0  0
  5 16  1  0  0  0  0
  8  7  1  1  0  0  0
  8 10  1  0  0  0  0
 10  1  1  1  0  0  0
 10 12  1  0  0  0  0
 11 18  1  0  0  0  0
 12 14  1  0  0  0  0
 14  2  1  6  0  0  0
 14 16  1  0  0  0  0
 16  9  1  6  0  0  0
 17  9  1  6  0  0  0
 17 11  1  0  0  0  0
 17 22  1  0  0  0  0
 18 19  1  6  0  0  0
 18 20  1  0  0  0  0
 19  3  1  0  0  0  0
 20 13  1  1  0  0  0
 20 21  1  0  0  0  0
 21 15  1  6  0  0  0
 21 22  1  0  0  0  0
 22  6  1  1  0  0  0
M  END
>  <CHROM.1>
67.82034994,56.05532055,163.99289061,26.47199565,9.86296646,12.87108482,-1.83726585
-0.48414489,-1.26688748

>  <Name>
2fcx_lig

>  <RI>
4.08374e+07

>  <Rbt.Current_Directory>
/home/itssahil/PROJECTS/Mol_Feturizer/New_Systems/rnas/2fcx

>  <Rbt.Executable>
rbdock ($Id: //depot/dev/client3/rdock/2013.1/src/exe/rbdock.cxx#4 $)

>  <Rbt.Library>
libRbt.so (2013.1, Build901 2013/11/27)

>  <Rbt.Parameter_File>
/export/apps/rDock/src/rDock_2013.1_src/data/scripts/dock_solv.prm

>  <Rbt.Receptor>
prm/pocket_docking_7.prm

>  <SCORE>
-9.09117

>  <SCORE.INTER>
-8.09245

>  <SCORE.INTER.CONST>
1

>  <SCORE.INTER.POLAR>
-1.12358

>  <SCORE.INTER.ROT>
3

>  <SCORE.INTER.SOLV>
13.0332

>  <SCORE.INTER.VDW>
-11.5941

>  <SCORE.INTER.norm>
-0.367839

>  <SCORE.INTRA>
-0.998724

>  <SCORE.INTRA.DIHEDRAL>
-3.62366

>  <SCORE.INTRA.DIHEDRAL.0>
4.88619

>  <SCORE.INTRA.POLAR>
0

>  <SCORE.INTRA.POLAR.0>
0

>  <SCORE.INTRA.REPUL>
0

>  <SCORE.INTRA.REPUL.0>
0

>  <SCORE.INTRA.SOLV>
0.00999842

>  <SCORE.INTRA.SOLV.lig_0>
-73.8187

>  <SCORE.INTRA.VDW>
0.808104

>  <SCORE.INTRA.VDW.0>
-1.32335

>  <SCORE.INTRA.norm>
-0.0453966

>  <SCORE.RESTR>
0

>  <SCORE.RESTR.CAVITY>
0

>  <SCORE.RESTR.norm>
0

>  <SCORE.SYSTEM>
0

>  <SCORE.SYSTEM.CONST>
0

>  <SCORE.SYSTEM.DIHEDRAL>
0

>  <SCORE.SYSTEM.SOLV>
0

>  <SCORE.SYSTEM.norm>
0

>  <SCORE.heavy>
22

>  <SCORE.norm>
-0.413235

>  <RMSD>
6.677

$$$$
2fcx_lig
 OpenBabel11021811433D
libRbt.so/2013.1/901 2013/11/27
 22 23  0  0  0  0  0  0  0  0999 V2000
   26.3859    6.9582   18.3607 N   0  0  0  0  0  0  0  0  0  0  0  0
   24.2550    9.7504   14.9347 N   0  0  0  0  0  0  0  0  0  0  0  0
   28.3168   13.5372   10.3032 N   0  0  0  0  0  0  0  0  0  0  0  0
   28.6693    7.8618   14.1430 O   0  0  0  0  0  0  0  0  0  0  0  0
   27.8128    8.4215   15.1423 C   0  0  2  0  0  0  0  0  0  0  0  0
   26.0012    7.6609   12.0138 N   0  0  0  0  0  0  0  0  0  0  0  0
   28.8588    7.1440   16.8836 O   0  0  0  0  0  0  0  0  0  0  0  0
   27.5925    7.4087   16.2684 C   0  0  1  0  0  0  0  0  0  0  0  0
   26.7349    9.9502   13.5827 O   0  0  0  0  0  0  0  0  0  0  0  0
   26.6217    7.9631   17.3136 C   0  0  1  0  0  0  0  0  0  0  0  0
   25.7853   11.3846   11.9914 O   0  0  0  0  0  0  0  0  0  0  0  0
   25.2847    8.3345   16.6634 C   0  0  0  0  0  0  0  0  0  0  0  0
   28.6136   10.9898    9.6406 O   0  0  0  0  0  0  0  0  0  0  0  0
   25.5265    9.3825   15.5735 C   0  0  1  0  0  0  0  0  0  0  0  0
   27.5582    8.3607    9.7073 O   0  0  0  0  0  0  0  0  0  0  0  0
   26.4941    8.8716   14.5018 C   0  0  2  0  0  0  0  0  0  0  0  0
   25.7387   10.0593   12.5515 C   0  0  1  0  0  0  0  0  0  0  0  0
   27.0330   11.7050   11.3437 C   0  0  2  0  0  0  0  0  0  0  0  0
   26.9808   13.1137   10.7482 C   0  0  0  0  0  0  0  0  0  0  0  0
   27.3320   10.7150   10.2146 C   0  0  2  0  0  0  0  0  0  0  0  0
   27.3418    9.2902   10.7707 C   0  0  1  0  0  0  0  0  0  0  0  0
   25.9991    9.0195   11.4548 C   0  0  1  0  0  0  0  0  0  0  0  0
  5  4  1  6  0  0  0
  5  8  1  0  0  0  0
  5 16  1  0  0  0  0
  8  7  1  1  0  0  0
  8 10  1  0  0  0  0
 10  1  1  1  0  0  0
 10 12  1  0  0  0  0
 11 18  1  0  0  0  0
 12 14  1  0  0  0  0
 14  2  1  6  0  0  0
 14 16  1  0  0  0  0
 16  9  1  6  0  0  0
 17  9  1  1  0  0  0
 17 11  1  0  0  0  0
 17 22  1  0  0  0  0
 18 19  1  6  0  0  0
 18 20  1  0  0  0  0
 19  3  1  0  0  0  0
 20 13  1  1  0  0  0
 20 21  1  0  0  0  0
 21 15  1  6  0  0  0
 21 22  1  0  0  0  0
 22  6  1  1  0  0  0
M  END
>  <CHROM.1>
155.00357614,160.06855678,169.80687385,26.89669864,9.44818611,13.33656463
1.68901881,-0.83433431,2.16922419

>  <Name>
2fcx_lig

>  <RI>
1.55453e+07

>  <Rbt.Current_Directory>
/home/itssahil/PROJECTS/Mol_Feturizer/New_Systems/rnas/2fcx

>  <Rbt.Executable>
rbdock ($Id: //depot/dev/client3/rdock/2013.1/src/exe/rbdock.cxx#4 $)

>  <Rbt.Library>
libRbt.so (2013.1, Build901 2013/11/27)

>  <Rbt.Parameter_File>
/export/apps/rDock/src/rDock_2013.1_src/data/scripts/dock_solv.prm

>  <Rbt.Receptor>
prm/pocket_docking_4.prm

>  <SCORE>
-14.1404

>  <SCORE.INTER>
-16.459

>  <SCORE.INTER.CONST>
1

>  <SCORE.INTER.POLAR>
-2.58818

>  <SCORE.INTER.ROT>
3

>  <SCORE.INTER.SOLV>
14.7968

>  <SCORE.INTER.VDW>
-12.8777

>  <SCORE.INTER.norm>
-0.748137

>  <SCORE.INTRA>
2.31862

>  <SCORE.INTRA.DIHEDRAL>
-0.050605

>  <SCORE.INTRA.DIHEDRAL.0>
4.88619

>  <SCORE.INTRA.POLAR>
0

>  <SCORE.INTRA.POLAR.0>
0

>  <SCORE.INTRA.REPUL>
0

>  <SCORE.INTRA.REPUL.0>
0

>  <SCORE.INTRA.SOLV>
3.72776

>  <SCORE.INTRA.SOLV.lig_0>
-73.8187

>  <SCORE.INTRA.VDW>
0.480038

>  <SCORE.INTRA.VDW.0>
-1.32335

>  <SCORE.INTRA.norm>
0.105392

>  <SCORE.RESTR>
0

>  <SCORE.RESTR.CAVITY>
0

>  <SCORE.RESTR.norm>
0

>  <SCORE.SYSTEM>
0

>  <SCORE.SYSTEM.CONST>
0

>  <SCORE.SYSTEM.DIHEDRAL>
0

>  <SCORE.SYSTEM.SOLV>
0

>  <SCORE.SYSTEM.norm>
0

>  <SCORE.heavy>
22

>  <SCORE.norm>
-0.642745

>  <RMSD>
6.701

$$$$
2fcx_lig
 OpenBabel11021811433D
libRbt.so/2013.1/901 2013/11/27
 22 23  0  0  0  0  0  0  0  0999 V2000
   26.2742    7.0843   18.3041 N   0  0  0  0  0  0  0  0  0  0  0  0
   24.2015    9.8201   14.7978 N   0  0  0  0  0  0  0  0  0  0  0  0
   27.0118   14.0185   11.4451 N   0  0  0  0  0  0  0  0  0  0  0  0
   28.6137    7.8908   14.0975 O   0  0  0  0  0  0  0  0  0  0  0  0
   27.7486    8.4752   15.0750 C   0  0  2  0  0  0  0  0  0  0  0  0
   25.8533    7.6373   12.0430 N   0  0  0  0  0  0  0  0  0  0  0  0
   28.7657    7.2266   16.8539 O   0  0  0  0  0  0  0  0  0  0  0  0
   27.5086    7.4863   16.2182 C   0  0  1  0  0  0  0  0  0  0  0  0
   26.6987    9.9788   13.4724 O   0  0  0  0  0  0  0  0  0  0  0  0
   26.5286    8.0668   17.2403 C   0  0  1  0  0  0  0  0  0  0  0  0
   25.8324   11.3585   11.7879 O   0  0  0  0  0  0  0  0  0  0  0  0
   25.2018    8.4329   16.5666 C   0  0  0  0  0  0  0  0  0  0  0  0
   28.6466   10.6717    9.4880 O   0  0  0  0  0  0  0  0  0  0  0  0
   25.4630    9.4577   15.4592 C   0  0  1  0  0  0  0  0  0  0  0  0
   27.4550    8.1102    9.7095 O   0  0  0  0  0  0  0  0  0  0  0  0
   26.4404    8.9201   14.4097 C   0  0  2  0  0  0  0  0  0  0  0  0
   25.7141   10.0749   12.4288 C   0  0  1  0  0  0  0  0  0  0  0  0
   27.0980   11.5728   11.1313 C   0  0  2  0  0  0  0  0  0  0  0  0
   27.1221   12.9424   10.4491 C   0  0  0  0  0  0  0  0  0  0  0  0
   27.3498   10.5001   10.0681 C   0  0  2  0  0  0  0  0  0  0  0  0
   27.2827    9.1141   10.7116 C   0  0  1  0  0  0  0  0  0  0  0  0
   25.9247    8.9566   11.4008 C   0  0  1  0  0  0  0  0  0  0  0  0
  5  4  1  6  0  0  0
  5  8  1  0  0  0  0
  5 16  1  0  0  0  0
  8  7  1  1  0  0  0
  8 10  1  0  0  0  0
 10  1  1  1  0  0  0
 10 12  1  0  0  0  0
 11 18  1  0  0  0  0
 12 14  1  0  0  0  0
 14  2  1  6  0  0  0
 14 16  1  0  0  0  0
 16  9  1  6  0  0  0
 17  9  1  1  0  0  0
 17 11  1  0  0  0  0
 17 22  1  0  0  0  0
 18 19  1  6  0  0  0
 18 20  1  0  0  0  0
 19  3  1  0  0  0  0
 20 13  1  1  0  0  0
 20 21  1  0  0  0  0
 21 15  1  6  0  0  0
 21 22  1  0  0  0  0
 22  6  1  1  0  0  0
M  END
>  <CHROM.1>
155.12950858,163.63063264,63.68896753,26.79734322,9.44206839,13.29336620
1.68083685,-1.00260104,2.15374039

>  <Name>
2fcx_lig

>  <RI>
4.08374e+07

>  <Rbt.Current_Directory>
/home/itssahil/PROJECTS/Mol_Feturizer/New_Systems/rnas/2fcx

>  <Rbt.Executable>
rbdock ($Id: //depot/dev/client3/rdock/2013.1/src/exe/rbdock.cxx#4 $)

>  <Rbt.Library>
libRbt.so (2013.1, Build901 2013/11/27)

>  <Rbt.Parameter_File>
/export/apps/rDock/src/rDock_2013.1_src/data/scripts/dock_solv.prm

>  <Rbt.Receptor>
prm/pocket_docking_7.prm

>  <SCORE>
-11.4226

>  <SCORE.INTER>
-12.6919

>  <SCORE.INTER.CONST>
1

>  <SCORE.INTER.POLAR>
-1.69026

>  <SCORE.INTER.ROT>
3

>  <SCORE.INTER.SOLV>
12.9577

>  <SCORE.INTER.VDW>
-12.7463

>  <SCORE.INTER.norm>
-0.576905

>  <SCORE.INTRA>
1.2693

>  <SCORE.INTRA.DIHEDRAL>
-0.943329

>  <SCORE.INTRA.DIHEDRAL.0>
4.88619

>  <SCORE.INTRA.POLAR>
0

>  <SCORE.INTRA.POLAR.0>
0

>  <SCORE.INTRA.REPUL>
0

>  <SCORE.INTRA.REPUL.0>
0

>  <SCORE.INTRA.SOLV>
2.80298

>  <SCORE.INTRA.SOLV.lig_0>
-73.8187

>  <SCORE.INTRA.VDW>
0.33947

>  <SCORE.INTRA.VDW.0>
-1.32335

>  <SCORE.INTRA.norm>
0.0576952

>  <SCORE.RESTR>
0

>  <SCORE.RESTR.CAVITY>
0

>  <SCORE.RESTR.norm>
0

>  <SCORE.SYSTEM>
0

>  <SCORE.SYSTEM.CONST>
0

>  <SCORE.SYSTEM.DIHEDRAL>
0

>  <SCORE.SYSTEM.SOLV>
0

>  <SCORE.SYSTEM.norm>
0

>  <SCORE.heavy>
22

>  <SCORE.norm>
-0.51921

>  <RMSD>
6.710

$$$$
2fcx_lig
 OpenBabel11021811433D
libRbt.so/2013.1/901 2013/11/27
 22 23  0  0  0  0  0  0  0  0999 V2000
   25.5463    7.4584   17.4170 N   0  0  0  0  0  0  0  0  0  0  0  0
   25.5361   11.1820   14.2218 N   0  0  0  0  0  0  0  0  0  0  0  0
   26.6325   10.8898    8.9627 N   0  0  0  0  0  0  0  0  0  0  0  0
   29.3373    8.1503   14.4223 O   0  0  0  0  0  0  0  0  0  0  0  0
   28.3434    8.8130   15.2088 C   0  0  2  0  0  0  0  0  0  0  0  0
   30.8522   12.1059   13.8248 N   0  0  0  0  0  0  0  0  0  0  0  0
   28.3496    7.0654   16.8532 O   0  0  0  0  0  0  0  0  0  0  0  0
   27.4940    7.7812   15.9546 C   0  0  1  0  0  0  0  0  0  0  0  0
   28.3044   10.7841   13.7790 O   0  0  0  0  0  0  0  0  0  0  0  0
   26.3793    8.4679   16.7472 C   0  0  1  0  0  0  0  0  0  0  0  0
   28.8383    9.7573   11.7412 O   0  0  0  0  0  0  0  0  0  0  0  0
   25.4985    9.3104   15.8184 C   0  0  0  0  0  0  0  0  0  0  0  0
   28.2581   12.8473    9.7926 O   0  0  0  0  0  0  0  0  0  0  0  0
   26.3629   10.3642   15.1206 C   0  0  1  0  0  0  0  0  0  0  0  0
   30.4653   13.5971   11.4039 O   0  0  0  0  0  0  0  0  0  0  0  0
   27.4948    9.7229   14.3123 C   0  0  2  0  0  0  0  0  0  0  0  0
   29.3832   10.3215   12.9483 C   0  0  1  0  0  0  0  0  0  0  0  0
   28.1148   10.7014   10.9262 C   0  0  2  0  0  0  0  0  0  0  0  0
   27.6038   10.0267    9.6512 C   0  0  0  0  0  0  0  0  0  0  0  0
   29.0117   11.8753   10.5241 C   0  0  2  0  0  0  0  0  0  0  0  0
   29.5787   12.5412   11.7790 C   0  0  1  0  0  0  0  0  0  0  0  0
   30.3200   11.4858   12.6040 C   0  0  1  0  0  0  0  0  0  0  0  0
  5  4  1  6  0  0  0
  5  8  1  0  0  0  0
  5 16  1  0  0  0  0
  8  7  1  1  0  0  0
  8 10  1  0  0  0  0
 10  1  1  6  0  0  0
 10 12  1  0  0  0  0
 11 18  1  0  0  0  0
 12 14  1  0  0  0  0
 14  2  1  6  0  0  0
 14 16  1  0  0  0  0
 16  9  1  1  0  0  0
 17  9  1  1  0  0  0
 17 11  1  0  0  0  0
 17 22  1  0  0  0  0
 18 19  1  6  0  0  0
 18 20  1  0  0  0  0
 19  3  1  0  0  0  0
 20 13  1  1  0  0  0
 20 21  1  0  0  0  0
 21 15  1  6  0  0  0
 21 22  1  0  0  0  0
 22  6  1  1  0  0  0
M  END
>  <CHROM.1>
61.90699118,68.19937841,167.86206727,28.10455791,10.24445084,13.34216339
1.87806946,0.33048723,2.05517221

>  <Name>
2fcx_lig

>  <RI>
1.55453e+07

>  <Rbt.Current_Directory>
/home/itssahil/PROJECTS/Mol_Feturizer/New_Systems/rnas/2fcx

>  <Rbt.Executable>
rbdock ($Id: //depot/dev/client3/rdock/2013.1/src/exe/rbdock.cxx#4 $)

>  <Rbt.Library>
libRbt.so (2013.1, Build901 2013/11/27)

>  <Rbt.Parameter_File>
/export/apps/rDock/src/rDock_2013.1_src/data/scripts/dock_solv.prm

>  <Rbt.Receptor>
prm/pocket_docking_4.prm

>  <SCORE>
-9.32883

>  <SCORE.INTER>
-8.7814

>  <SCORE.INTER.CONST>
1

>  <SCORE.INTER.POLAR>
-0.937306

>  <SCORE.INTER.ROT>
3

>  <SCORE.INTER.SOLV>
18.033

>  <SCORE.INTER.VDW>
-14.3409

>  <SCORE.INTER.norm>
-0.399154

>  <SCORE.INTRA>
-0.547429

>  <SCORE.INTRA.DIHEDRAL>
-4.01261

>  <SCORE.INTRA.DIHEDRAL.0>
4.88619

>  <SCORE.INTRA.POLAR>
0

>  <SCORE.INTRA.POLAR.0>
0

>  <SCORE.INTRA.REPUL>
0

>  <SCORE.INTRA.REPUL.0>
0

>  <SCORE.INTRA.SOLV>
0.0671762

>  <SCORE.INTRA.SOLV.lig_0>
-73.8187

>  <SCORE.INTRA.VDW>
1.42529

>  <SCORE.INTRA.VDW.0>
-1.32335

>  <SCORE.INTRA.norm>
-0.0248831

>  <SCORE.RESTR>
0

>  <SCORE.RESTR.CAVITY>
0

>  <SCORE.RESTR.norm>
0

>  <SCORE.SYSTEM>
0

>  <SCORE.SYSTEM.CONST>
0

>  <SCORE.SYSTEM.DIHEDRAL>
0

>  <SCORE.SYSTEM.SOLV>
0

>  <SCORE.SYSTEM.norm>
0

>  <SCORE.heavy>
22

>  <SCORE.norm>
-0.424038

>  <RMSD>
6.725

$$$$
2fcx_lig
 OpenBabel11021811433D
libRbt.so/2013.1/901 2013/11/27
 22 23  0  0  0  0  0  0  0  0999 V2000
   28.8733    8.0098   18.1641 N   0  0  0  0  0  0  0  0  0  0  0  0
   29.5772   12.5886   16.5476 N   0  0  0  0  0  0  0  0  0  0  0  0
   28.1429   16.5011   13.1010 N   0  0  0  0  0  0  0  0  0  0  0  0
   28.0792    9.1218   13.4789 O   0  0  0  0  0  0  0  0  0  0  0  0
   28.9167    9.3840   14.6082 C   0  0  2  0  0  0  0  0  0  0  0  0
   30.4728   10.6100   11.4050 N   0  0  0  0  0  0  0  0  0  0  0  0
   28.6803    7.1380   15.4193 O   0  0  0  0  0  0  0  0  0  0  0  0
   28.4903    8.5088   15.7892 C   0  0  1  0  0  0  0  0  0  0  0  0
   29.4530   11.6454   13.8806 O   0  0  0  0  0  0  0  0  0  0  0  0
   29.3296    8.8254   17.0291 C   0  0  1  0  0  0  0  0  0  0  0  0
   27.7761   12.8164   12.7366 O   0  0  0  0  0  0  0  0  0  0  0  0
   29.2103   10.3084   17.3960 C   0  0  0  0  0  0  0  0  0  0  0  0
   30.1082   15.4447   11.5814 O   0  0  0  0  0  0  0  0  0  0  0  0
   29.6866   11.1608   16.2165 C   0  0  1  0  0  0  0  0  0  0  0  0
   31.1287   13.1568   10.2570 O   0  0  0  0  0  0  0  0  0  0  0  0
   28.8738   10.8785   14.9495 C   0  0  2  0  0  0  0  0  0  0  0  0
   28.6470   11.6711   12.6900 C   0  0  1  0  0  0  0  0  0  0  0  0
   28.4688   14.0809   12.7487 C   0  0  2  0  0  0  0  0  0  0  0  0
   27.4686   15.2390   12.7620 C   0  0  0  0  0  0  0  0  0  0  0  0
   29.3594   14.2273   11.5120 C   0  0  2  0  0  0  0  0  0  0  0  0
   30.3395   13.0549   11.4437 C   0  0  1  0  0  0  0  0  0  0  0  0
   29.5436   11.7471   11.4481 C   0  0  1  0  0  0  0  0  0  0  0  0
  5  4  1  6  0  0  0
  5  8  1  0  0  0  0
  5 16  1  0  0  0  0
  8  7  1  6  0  0  0
  8 10  1  0  0  0  0
 10  1  1  1  0  0  0
 10 12  1  0  0  0  0
 11 18  1  0  0  0  0
 12 14  1  0  0  0  0
 14  2  1  1  0  0  0
 14 16  1  0  0  0  0
 16  9  1  6  0  0  0
 17  9  1  1  0  0  0
 17 11  1  0  0  0  0
 17 22  1  0  0  0  0
 18 19  1  6  0  0  0
 18 20  1  0  0  0  0
 19  3  1  0  0  0  0
 20 13  1  1  0  0  0
 20 21  1  0  0  0  0
 21 15  1  6  0  0  0
 21 22  1  0  0  0  0
 22  6  1  1  0  0  0
M  END
>  <CHROM.1>
70.43783924,91.73656612,166.26427082,29.12106307,11.64768203,13.83441457
1.78668363,-1.31717296,2.66299127

>  <Name>
2fcx_lig

>  <RI>
1.15031e+07

>  <Rbt.Current_Directory>
/home/itssahil/PROJECTS/Mol_Feturizer/New_Systems/rnas/2fcx

>  <Rbt.Executable>
rbdock ($Id: //depot/dev/client3/rdock/2013.1/src/exe/rbdock.cxx#4 $)

>  <Rbt.Library>
libRbt.so (2013.1, Build901 2013/11/27)

>  <Rbt.Parameter_File>
/export/apps/rDock/src/rDock_2013.1_src/data/scripts/dock_solv.prm

>  <Rbt.Receptor>
prm/pocket_docking_8.prm

>  <SCORE>
-7.19795

>  <SCORE.INTER>
-8.313

>  <SCORE.INTER.CONST>
1

>  <SCORE.INTER.POLAR>
-1.30807

>  <SCORE.INTER.ROT>
3

>  <SCORE.INTER.SOLV>
14.2773

>  <SCORE.INTER.VDW>
-11.5409

>  <SCORE.INTER.norm>
-0.377863

>  <SCORE.INTRA>
1.11505

>  <SCORE.INTRA.DIHEDRAL>
0.231201

>  <SCORE.INTRA.DIHEDRAL.0>
4.88619

>  <SCORE.INTRA.POLAR>
0

>  <SCORE.INTRA.POLAR.0>
0

>  <SCORE.INTRA.REPUL>
0

>  <SCORE.INTRA.REPUL.0>
0

>  <SCORE.INTRA.SOLV>
1.00803

>  <SCORE.INTRA.SOLV.lig_0>
-73.8187

>  <SCORE.INTRA.VDW>
0.495431

>  <SCORE.INTRA.VDW.0>
-1.32335

>  <SCORE.INTRA.norm>
0.050684

>  <SCORE.RESTR>
0

>  <SCORE.RESTR.CAVITY>
0

>  <SCORE.RESTR.norm>
0

>  <SCORE.SYSTEM>
0

>  <SCORE.SYSTEM.CONST>
0

>  <SCORE.SYSTEM.DIHEDRAL>
0

>  <SCORE.SYSTEM.SOLV>
0

>  <SCORE.SYSTEM.norm>
0

>  <SCORE.heavy>
22

>  <SCORE.norm>
-0.327179

>  <RMSD>
6.725

$$$$
2fcx_lig
 OpenBabel11021811433D
libRbt.so/2013.1/901 2013/11/27
 22 23  0  0  0  0  0  0  0  0999 V2000
   25.4523   10.2265    6.0975 N   0  0  0  0  0  0  0  0  0  0  0  0
   27.3583   13.3936    9.3241 N   0  0  0  0  0  0  0  0  0  0  0  0
   31.2421   14.3706   10.1953 N   0  0  0  0  0  0  0  0  0  0  0  0
   28.3199    8.6393    9.7137 O   0  0  0  0  0  0  0  0  0  0  0  0
   27.3103    9.5906    9.3653 C   0  0  2  0  0  0  0  0  0  0  0  0
   28.2078    9.4555   13.2575 N   0  0  0  0  0  0  0  0  0  0  0  0
   26.2782    8.0669    7.8254 O   0  0  0  0  0  0  0  0  0  0  0  0
   26.8631    9.3713    7.9182 C   0  0  1  0  0  0  0  0  0  0  0  0
   28.0685   11.2264   11.0025 O   0  0  0  0  0  0  0  0  0  0  0  0
   25.8331   10.4246    7.5037 C   0  0  1  0  0  0  0  0  0  0  0  0
   30.3555   11.7006   11.1935 O   0  0  0  0  0  0  0  0  0  0  0  0
   26.4066   11.8353    7.6750 C   0  0  0  0  0  0  0  0  0  0  0  0
   29.8627   13.9382   14.0972 O   0  0  0  0  0  0  0  0  0  0  0  0
   26.8024   12.0457    9.1392 C   0  0  1  0  0  0  0  0  0  0  0  0
   29.0345   11.4431   15.1549 O   0  0  0  0  0  0  0  0  0  0  0  0
   27.8346   11.0124    9.6005 C   0  0  2  0  0  0  0  0  0  0  0  0
   29.3351   10.7200   11.4573 C   0  0  1  0  0  0  0  0  0  0  0  0
   30.1722   12.9438   11.9004 C   0  0  2  0  0  0  0  0  0  0  0  0
   31.3174   13.9101   11.5899 C   0  0  0  0  0  0  0  0  0  0  0  0
   30.1347   12.7110   13.4133 C   0  0  2  0  0  0  0  0  0  0  0  0
   29.0295   11.7089   13.7510 C   0  0  1  0  0  0  0  0  0  0  0  0
   29.2744   10.4211   12.9603 C   0  0  1  0  0  0  0  0  0  0  0  0
  5  4  1  6  0  0  0
  5  8  1  0  0  0  0
  5 16  1  0  0  0  0
  8  7  1  1  0  0  0
  8 10  1  0  0  0  0
 10  1  1  6  0  0  0
 10 12  1  0  0  0  0
 11 18  1  0  0  0  0
 12 14  1  0  0  0  0
 14  2  1  6  0  0  0
 14 16  1  0  0  0  0
 16  9  1  1  0  0  0
 17  9  1  1  0  0  0
 17 11  1  0  0  0  0
 17 22  1  0  0  0  0
 18 19  1  1  0  0  0
 18 20  1  0  0  0  0
 19  3  1  0  0  0  0
 20 13  1  1  0  0  0
 20 21  1  0  0  0  0
 21 15  1  1  0  0  0
 21 22  1  0  0  0  0
 22  6  1  6  0  0  0
M  END
>  <CHROM.1>
82.39112288,83.87785411,69.18788188,28.40045161,11.31391075,10.67350708,-2.78864792
0.99508882,2.27121246

>  <Name>
2fcx_lig

>  <RI>
4.08374e+07

>  <Rbt.Current_Directory>
/home/itssahil/PROJECTS/Mol_Feturizer/New_Systems/rnas/2fcx

>  <Rbt.Executable>
rbdock ($Id: //depot/dev/client3/rdock/2013.1/src/exe/rbdock.cxx#4 $)

>  <Rbt.Library>
libRbt.so (2013.1, Build901 2013/11/27)

>  <Rbt.Parameter_File>
/export/apps/rDock/src/rDock_2013.1_src/data/scripts/dock_solv.prm

>  <Rbt.Receptor>
prm/pocket_docking_7.prm

>  <SCORE>
-10.013

>  <SCORE.INTER>
-9.9786

>  <SCORE.INTER.CONST>
1

>  <SCORE.INTER.POLAR>
-2.10835

>  <SCORE.INTER.ROT>
3

>  <SCORE.INTER.SOLV>
14.8463

>  <SCORE.INTER.VDW>
-10.1733

>  <SCORE.INTER.norm>
-0.453573

>  <SCORE.INTRA>
-0.0665134

>  <SCORE.INTRA.DIHEDRAL>
0.0843842

>  <SCORE.INTRA.DIHEDRAL.0>
4.88619

>  <SCORE.INTRA.POLAR>
0

>  <SCORE.INTRA.POLAR.0>
0

>  <SCORE.INTRA.REPUL>
0

>  <SCORE.INTRA.REPUL.0>
0

>  <SCORE.INTRA.SOLV>
0.48978

>  <SCORE.INTRA.SOLV.lig_0>
-73.8187

>  <SCORE.INTRA.VDW>
-0.353595

>  <SCORE.INTRA.VDW.0>
-1.32335

>  <SCORE.INTRA.norm>
-0.00302333

>  <SCORE.RESTR>
0.0321238

>  <SCORE.RESTR.CAVITY>
0.0321238

>  <SCORE.RESTR.norm>
0.00146017

>  <SCORE.SYSTEM>
0

>  <SCORE.SYSTEM.CONST>
0

>  <SCORE.SYSTEM.DIHEDRAL>
0

>  <SCORE.SYSTEM.SOLV>
0

>  <SCORE.SYSTEM.norm>
0

>  <SCORE.heavy>
22

>  <SCORE.norm>
-0.455136

>  <RMSD>
6.730

$$$$
2fcx_lig
 OpenBabel11021811433D
libRbt.so/2013.1/901 2013/11/27
 22 23  0  0  0  0  0  0  0  0999 V2000
   33.7678   14.1874   14.5719 N   0  0  0  0  0  0  0  0  0  0  0  0
   30.8382   15.0955   10.7421 N   0  0  0  0  0  0  0  0  0  0  0  0
   27.0949   15.6026   13.1746 N   0  0  0  0  0  0  0  0  0  0  0  0
   29.9263   11.3159   13.6685 O   0  0  0  0  0  0  0  0  0  0  0  0
   30.9691   12.0843   13.0622 C   0  0  2  0  0  0  0  0  0  0  0  0
   28.5649   10.4478    9.4126 N   0  0  0  0  0  0  0  0  0  0  0  0
   32.4835   11.6191   14.8645 O   0  0  0  0  0  0  0  0  0  0  0  0
   31.8664   12.6918   14.1430 C   0  0  1  0  0  0  0  0  0  0  0  0
   29.6795   12.5296   11.0448 O   0  0  0  0  0  0  0  0  0  0  0  0
   32.9473   13.5756   13.5164 C   0  0  1  0  0  0  0  0  0  0  0  0
   27.6208   12.8296   12.1234 O   0  0  0  0  0  0  0  0  0  0  0  0
   32.3127   14.6828   12.6680 C   0  0  0  0  0  0  0  0  0  0  0  0
   26.1495   14.6527    9.2610 O   0  0  0  0  0  0  0  0  0  0  0  0
   31.4588   14.0488   11.5663 C   0  0  1  0  0  0  0  0  0  0  0  0
   26.5841   12.0872    8.1386 O   0  0  0  0  0  0  0  0  0  0  0  0
   30.3602   13.1532   12.1466 C   0  0  2  0  0  0  0  0  0  0  0  0
   28.4495   11.8860   11.4197 C   0  0  1  0  0  0  0  0  0  0  0  0
   27.2234   13.9672   11.3316 C   0  0  2  0  0  0  0  0  0  0  0  0
   26.3188   14.8958   12.1448 C   0  0  0  0  0  0  0  0  0  0  0  0
   26.4588   13.5222   10.0820 C   0  0  2  0  0  0  0  0  0  0  0  0
   27.3201   12.5519    9.2718 C   0  0  1  0  0  0  0  0  0  0  0  0
   27.7182   11.3785   10.1709 C   0  0  1  0  0  0  0  0  0  0  0  0
  5  4  1  1  0  0  0
  5  8  1  0  0  0  0
  5 16  1  0  0  0  0
  8  7  1  6  0  0  0
  8 10  1  0  0  0  0
 10  1  1  1  0  0  0
 10 12  1  0  0  0  0
 11 18  1  0  0  0  0
 12 14  1  0  0  0  0
 14  2  1  1  0  0  0
 14 16  1  0  0  0  0
 16  9  1  6  0  0  0
 17  9  1  6  0  0  0
 17 11  1  0  0  0  0
 17 22  1  0  0  0  0
 18 19  1  1  0  0  0
 18 20  1  0  0  0  0
 19  3  1  0  0  0  0
 20 13  1  6  0  0  0
 20 21  1  0  0  0  0
 21 15  1  6  0  0  0
 21 22  1  0  0  0  0
 22  6  1  6  0  0  0
M  END
>  <CHROM.1>
72.07062209,53.38056936,71.80044044,29.34108730,13.11146801,11.74475624,0.23992194
-0.57222540,0.40719781

>  <Name>
2fcx_lig

>  <RI>
3.23342e+07

>  <Rbt.Current_Directory>
/home/itssahil/PROJECTS/Mol_Feturizer/New_Systems/rnas/2fcx

>  <Rbt.Executable>
rbdock ($Id: //depot/dev/client3/rdock/2013.1/src/exe/rbdock.cxx#4 $)

>  <Rbt.Library>
libRbt.so (2013.1, Build901 2013/11/27)

>  <Rbt.Parameter_File>
/export/apps/rDock/src/rDock_2013.1_src/data/scripts/dock_solv.prm

>  <Rbt.Receptor>
prm/pocket_docking_5.prm

>  <SCORE>
-7.45582

>  <SCORE.INTER>
-5.74668

>  <SCORE.INTER.CONST>
1

>  <SCORE.INTER.POLAR>
-0.951111

>  <SCORE.INTER.ROT>
3

>  <SCORE.INTER.SOLV>
14.5313

>  <SCORE.INTER.VDW>
-11.1045

>  <SCORE.INTER.norm>
-0.261213

>  <SCORE.INTRA>
-1.75256

>  <SCORE.INTRA.DIHEDRAL>
-3.48734

>  <SCORE.INTRA.DIHEDRAL.0>
4.88619

>  <SCORE.INTRA.POLAR>
0

>  <SCORE.INTRA.POLAR.0>
0

>  <SCORE.INTRA.REPUL>
0

>  <SCORE.INTRA.REPUL.0>
0

>  <SCORE.INTRA.SOLV>
-0.65207

>  <SCORE.INTRA.SOLV.lig_0>
-73.8187

>  <SCORE.INTRA.VDW>
0.317147

>  <SCORE.INTRA.VDW.0>
-1.32335

>  <SCORE.INTRA.norm>
-0.0796617

>  <SCORE.RESTR>
0.0434118

>  <SCORE.RESTR.CAVITY>
0.0434118

>  <SCORE.RESTR.norm>
0.00197326

>  <SCORE.SYSTEM>
0

>  <SCORE.SYSTEM.CONST>
0

>  <SCORE.SYSTEM.DIHEDRAL>
0

>  <SCORE.SYSTEM.SOLV>
0

>  <SCORE.SYSTEM.norm>
0

>  <SCORE.heavy>
22

>  <SCORE.norm>
-0.338901

>  <RMSD>
6.742

$$$$
2fcx_lig
 OpenBabel11021811433D
libRbt.so/2013.1/901 2013/11/27
 22 23  0  0  0  0  0  0  0  0999 V2000
   29.8618   11.9713   14.5509 N   0  0  0  0  0  0  0  0  0  0  0  0
   28.8453   10.9335    9.8643 N   0  0  0  0  0  0  0  0  0  0  0  0
   23.3255    8.5426    9.0298 N   0  0  0  0  0  0  0  0  0  0  0  0
   27.4006    7.9173   13.3992 O   0  0  0  0  0  0  0  0  0  0  0  0
   28.4515    8.7943   12.9846 C   0  0  2  0  0  0  0  0  0  0  0  0
   28.3947    5.4976   10.0332 N   0  0  0  0  0  0  0  0  0  0  0  0
   29.0555    9.2903   15.2534 O   0  0  0  0  0  0  0  0  0  0  0  0
   28.6485    9.9011   14.0232 C   0  0  1  0  0  0  0  0  0  0  0  0
   28.1442    8.2964   10.6205 O   0  0  0  0  0  0  0  0  0  0  0  0
   29.7215   10.8908   13.5637 C   0  0  1  0  0  0  0  0  0  0  0  0
   25.8155    8.1683   10.3915 O   0  0  0  0  0  0  0  0  0  0  0  0
   29.3499   11.4960   12.2058 C   0  0  0  0  0  0  0  0  0  0  0  0
   25.9750    8.0586    6.6977 O   0  0  0  0  0  0  0  0  0  0  0  0
   29.2049   10.3733   11.1746 C   0  0  1  0  0  0  0  0  0  0  0  0
   27.2740    5.6387    7.3952 O   0  0  0  0  0  0  0  0  0  0  0  0
   28.1391    9.3557   11.5920 C   0  0  2  0  0  0  0  0  0  0  0  0
   27.0046    7.4245   10.7154 C   0  0  1  0  0  0  0  0  0  0  0  0
   25.7892    8.6754    9.0420 C   0  0  2  0  0  0  0  0  0  0  0  0
   24.4787    9.4188    8.7749 C   0  0  0  0  0  0  0  0  0  0  0  0
   25.9118    7.5348    8.0279 C   0  0  2  0  0  0  0  0  0  0  0  0
   27.1903    6.7407    8.3008 C   0  0  1  0  0  0  0  0  0  0  0  0
   27.1619    6.2444    9.7488 C   0  0  1  0  0  0  0  0  0  0  0  0
  5  4  1  1  0  0  0
  5  8  1  0  0  0  0
  5 16  1  0  0  0  0
  8  7  1  1  0  0  0
  8 10  1  0  0  0  0
 10  1  1  1  0  0  0
 10 12  1  0  0  0  0
 11 18  1  0  0  0  0
 12 14  1  0  0  0  0
 14  2  1  6  0  0  0
 14 16  1  0  0  0  0
 16  9  1  6  0  0  0
 17  9  1  6  0  0  0
 17 11  1  0  0  0  0
 17 22  1  0  0  0  0
 18 19  1  6  0  0  0
 18 20  1  0  0  0  0
 19  3  1  0  0  0  0
 20 13  1  6  0  0  0
 20 21  1  0  0  0  0
 21 15  1  6  0  0  0
 21 22  1  0  0  0  0
 22  6  1  1  0  0  0
M  END
>  <CHROM.1>
72.59636303,65.30123744,-56.76678059,27.49077291,8.66195225,10.78001911,0.68831549
-0.93869202,0.28682826

>  <Name>
2fcx_lig

>  <RI>
4.08374e+07

>  <Rbt.Current_Directory>
/home/itssahil/PROJECTS/Mol_Feturizer/New_Systems/rnas/2fcx

>  <Rbt.Executable>
rbdock ($Id: //depot/dev/client3/rdock/2013.1/src/exe/rbdock.cxx#4 $)

>  <Rbt.Library>
libRbt.so (2013.1, Build901 2013/11/27)

>  <Rbt.Parameter_File>
/export/apps/rDock/src/rDock_2013.1_src/data/scripts/dock_solv.prm

>  <Rbt.Receptor>
prm/pocket_docking_7.prm

>  <SCORE>
-11.3108

>  <SCORE.INTER>
-9.95339

>  <SCORE.INTER.CONST>
1

>  <SCORE.INTER.POLAR>
-2.12167

>  <SCORE.INTER.ROT>
3

>  <SCORE.INTER.SOLV>
12.5199

>  <SCORE.INTER.VDW>
-9.33666

>  <SCORE.INTER.norm>
-0.452427

>  <SCORE.INTRA>
-1.35742

>  <SCORE.INTRA.DIHEDRAL>
-3.94888

>  <SCORE.INTRA.DIHEDRAL.0>
4.88619

>  <SCORE.INTRA.POLAR>
0

>  <SCORE.INTRA.POLAR.0>
0

>  <SCORE.INTRA.REPUL>
0

>  <SCORE.INTRA.REPUL.0>
0

>  <SCORE.INTRA.SOLV>
0.675857

>  <SCORE.INTRA.SOLV.lig_0>
-73.8187

>  <SCORE.INTRA.VDW>
0.279094

>  <SCORE.INTRA.VDW.0>
-1.32335

>  <SCORE.INTRA.norm>
-0.0617008

>  <SCORE.RESTR>
0

>  <SCORE.RESTR.CAVITY>
0

>  <SCORE.RESTR.norm>
0

>  <SCORE.SYSTEM>
0

>  <SCORE.SYSTEM.CONST>
0

>  <SCORE.SYSTEM.DIHEDRAL>
0

>  <SCORE.SYSTEM.SOLV>
0

>  <SCORE.SYSTEM.norm>
0

>  <SCORE.heavy>
22

>  <SCORE.norm>
-0.514128

>  <RMSD>
6.749

$$$$
2fcx_lig
 OpenBabel11021811433D
libRbt.so/2013.1/901 2013/11/27
 22 23  0  0  0  0  0  0  0  0999 V2000
   28.0349    9.1616   17.1125 N   0  0  0  0  0  0  0  0  0  0  0  0
   29.4516    9.3167   12.4175 N   0  0  0  0  0  0  0  0  0  0  0  0
   28.8681   12.2179    9.5055 N   0  0  0  0  0  0  0  0  0  0  0  0
   24.8688    8.1304   13.5445 O   0  0  0  0  0  0  0  0  0  0  0  0
   26.2317    8.0042   13.9591 C   0  0  2  0  0  0  0  0  0  0  0  0
   26.0711    6.3002    9.5601 N   0  0  0  0  0  0  0  0  0  0  0  0
   25.6084    7.8445   16.2709 O   0  0  0  0  0  0  0  0  0  0  0  0
   26.4100    8.6020   15.3567 C   0  0  1  0  0  0  0  0  0  0  0  0
   27.0827    7.9532   11.6778 O   0  0  0  0  0  0  0  0  0  0  0  0
   27.8767    8.5399   15.7896 C   0  0  1  0  0  0  0  0  0  0  0  0
   26.2105    9.8667   10.6436 O   0  0  0  0  0  0  0  0  0  0  0  0
   28.7675    9.2722   14.7804 C   0  0  0  0  0  0  0  0  0  0  0  0
   28.8907    9.9670    8.0965 O   0  0  0  0  0  0  0  0  0  0  0  0
   28.6064    8.6259   13.4017 C   0  0  1  0  0  0  0  0  0  0  0  0
   27.5930    7.5294    7.4608 O   0  0  0  0  0  0  0  0  0  0  0  0
   27.1515    8.6646   12.9249 C   0  0  2  0  0  0  0  0  0  0  0  0
   26.0605    8.4427   10.7929 C   0  0  1  0  0  0  0  0  0  0  0  0
   27.4558   10.2656   10.0362 C   0  0  2  0  0  0  0  0  0  0  0  0
   27.5140   11.7872    9.8841 C   0  0  0  0  0  0  0  0  0  0  0  0
   27.6130    9.6361    8.6493 C   0  0  2  0  0  0  0  0  0  0  0  0
   27.5094    8.1142    8.7618 C   0  0  1  0  0  0  0  0  0  0  0  0
   26.1759    7.7593    9.4249 C   0  0  1  0  0  0  0  0  0  0  0  0
  5  4  1  6  0  0  0
  5  8  1  0  0  0  0
  5 16  1  0  0  0  0
  8  7  1  1  0  0  0
  8 10  1  0  0  0  0
 10  1  1  1  0  0  0
 10 12  1  0  0  0  0
 11 18  1  0  0  0  0
 12 14  1  0  0  0  0
 14  2  1  6  0  0  0
 14 16  1  0  0  0  0
 16  9  1  6  0  0  0
 17  9  1  1  0  0  0
 17 11  1  0  0  0  0
 17 22  1  0  0  0  0
 18 19  1  6  0  0  0
 18 20  1  0  0  0  0
 19  3  1  0  0  0  0
 20 13  1  1  0  0  0
 20 21  1  0  0  0  0
 21 15  1  6  0  0  0
 21 22  1  0  0  0  0
 22  6  1  1  0  0  0
M  END
>  <CHROM.1>
89.87889077,51.87171278,169.32613246,27.25867604,8.90322147,11.79701047,-1.70921987
-0.88086793,-1.56528513

>  <Name>
2fcx_lig

>  <RI>
1.15031e+07

>  <Rbt.Current_Directory>
/home/itssahil/PROJECTS/Mol_Feturizer/New_Systems/rnas/2fcx

>  <Rbt.Executable>
rbdock ($Id: //depot/dev/client3/rdock/2013.1/src/exe/rbdock.cxx#4 $)

>  <Rbt.Library>
libRbt.so (2013.1, Build901 2013/11/27)

>  <Rbt.Parameter_File>
/export/apps/rDock/src/rDock_2013.1_src/data/scripts/dock_solv.prm

>  <Rbt.Receptor>
prm/pocket_docking_8.prm

>  <SCORE>
-9.96163

>  <SCORE.INTER>
-10.5199

>  <SCORE.INTER.CONST>
1

>  <SCORE.INTER.POLAR>
-2.19534

>  <SCORE.INTER.ROT>
3

>  <SCORE.INTER.SOLV>
14.4323

>  <SCORE.INTER.VDW>
-10.1062

>  <SCORE.INTER.norm>
-0.478175

>  <SCORE.INTRA>
0.55823

>  <SCORE.INTRA.DIHEDRAL>
-0.573586

>  <SCORE.INTRA.DIHEDRAL.0>
4.88619

>  <SCORE.INTRA.POLAR>
0

>  <SCORE.INTRA.POLAR.0>
0

>  <SCORE.INTRA.REPUL>
0

>  <SCORE.INTRA.REPUL.0>
0

>  <SCORE.INTRA.SOLV>
1.96427

>  <SCORE.INTRA.SOLV.lig_0>
-73.8187

>  <SCORE.INTRA.VDW>
-0.137114

>  <SCORE.INTRA.VDW.0>
-1.32335

>  <SCORE.INTRA.norm>
0.0253741

>  <SCORE.RESTR>
0

>  <SCORE.RESTR.CAVITY>
0

>  <SCORE.RESTR.norm>
0

>  <SCORE.SYSTEM>
0

>  <SCORE.SYSTEM.CONST>
0

>  <SCORE.SYSTEM.DIHEDRAL>
0

>  <SCORE.SYSTEM.SOLV>
0

>  <SCORE.SYSTEM.norm>
0

>  <SCORE.heavy>
22

>  <SCORE.norm>
-0.452801

>  <RMSD>
6.764

$$$$
2fcx_lig
 OpenBabel11021811433D
libRbt.so/2013.1/901 2013/11/27
 22 23  0  0  0  0  0  0  0  0999 V2000
   23.5064    5.4739   10.1198 N   0  0  0  0  0  0  0  0  0  0  0  0
   27.7958    7.8529    9.9935 N   0  0  0  0  0  0  0  0  0  0  0  0
   28.3444   13.2858   10.2638 N   0  0  0  0  0  0  0  0  0  0  0  0
   24.8801    8.2849   13.8654 O   0  0  0  0  0  0  0  0  0  0  0  0
   24.9003    8.1579   12.4410 C   0  0  2  0  0  0  0  0  0  0  0  0
   28.5534    8.0460   14.1649 N   0  0  0  0  0  0  0  0  0  0  0  0
   22.7687    7.0561   12.4183 O   0  0  0  0  0  0  0  0  0  0  0  0
   24.1353    6.9017   12.0177 C   0  0  1  0  0  0  0  0  0  0  0  0
   26.9701    9.4191   12.2032 O   0  0  0  0  0  0  0  0  0  0  0  0
   24.2054    6.7099   10.5009 C   0  0  1  0  0  0  0  0  0  0  0  0
   28.8520   10.6076   11.4700 O   0  0  0  0  0  0  0  0  0  0  0  0
   25.6630    6.6270   10.0353 C   0  0  0  0  0  0  0  0  0  0  0  0
   28.8078   12.8861   14.3834 O   0  0  0  0  0  0  0  0  0  0  0  0
   26.3934    7.9139   10.4291 C   0  0  1  0  0  0  0  0  0  0  0  0
   29.3370   10.3919   15.6200 O   0  0  0  0  0  0  0  0  0  0  0  0
   26.3504    8.1488   11.9420 C   0  0  2  0  0  0  0  0  0  0  0  0
   28.4038    9.3915   12.0967 C   0  0  1  0  0  0  0  0  0  0  0  0
   28.5542   11.8006   12.2229 C   0  0  2  0  0  0  0  0  0  0  0  0
   29.0963   13.0373   11.5028 C   0  0  0  0  0  0  0  0  0  0  0  0
   29.1855   11.7386   13.6164 C   0  0  2  0  0  0  0  0  0  0  0  0
   28.7003   10.4839   14.3442 C   0  0  1  0  0  0  0  0  0  0  0  0
   29.0334    9.2587   13.4887 C   0  0  1  0  0  0  0  0  0  0  0  0
  5  4  1  1  0  0  0
  5  8  1  0  0  0  0
  5 16  1  0  0  0  0
  8  7  1  6  0  0  0
  8 10  1  0  0  0  0
 10  1  1  1  0  0  0
 10 12  1  0  0  0  0
 11 18  1  0  0  0  0
 12 14  1  0  0  0  0
 14  2  1  1  0  0  0
 14 16  1  0  0  0  0
 16  9  1  6  0  0  0
 17  9  1  1  0  0  0
 17 11  1  0  0  0  0
 17 22  1  0  0  0  0
 18 19  1  6  0  0  0
 18 20  1  0  0  0  0
 19  3  1  0  0  0  0
 20 13  1  1  0  0  0
 20 21  1  0  0  0  0
 21 15  1  1  0  0  0
 21 22  1  0  0  0  0
 22  6  1  1  0  0  0
M  END
>  <CHROM.1>
164.53700774,140.77298598,68.76699293,27.01774918,9.27547413,12.27315310
-2.99030142,0.83985969,1.73850693

>  <Name>
2fcx_lig

>  <RI>
1.15031e+07

>  <Rbt.Current_Directory>
/home/itssahil/PROJECTS/Mol_Feturizer/New_Systems/rnas/2fcx

>  <Rbt.Executable>
rbdock ($Id: //depot/dev/client3/rdock/2013.1/src/exe/rbdock.cxx#4 $)

>  <Rbt.Library>
libRbt.so (2013.1, Build901 2013/11/27)

>  <Rbt.Parameter_File>
/export/apps/rDock/src/rDock_2013.1_src/data/scripts/dock_solv.prm

>  <Rbt.Receptor>
prm/pocket_docking_8.prm

>  <SCORE>
-9.1514

>  <SCORE.INTER>
-11.4903

>  <SCORE.INTER.CONST>
1

>  <SCORE.INTER.POLAR>
-2.43461

>  <SCORE.INTER.ROT>
3

>  <SCORE.INTER.SOLV>
14.7356

>  <SCORE.INTER.VDW>
-10.0567

>  <SCORE.INTER.norm>
-0.522286

>  <SCORE.INTRA>
2.3389

>  <SCORE.INTRA.DIHEDRAL>
1.7775

>  <SCORE.INTRA.DIHEDRAL.0>
4.88619

>  <SCORE.INTRA.POLAR>
0

>  <SCORE.INTRA.POLAR.0>
0

>  <SCORE.INTRA.REPUL>
0

>  <SCORE.INTRA.REPUL.0>
0

>  <SCORE.INTRA.SOLV>
1.6753

>  <SCORE.INTRA.SOLV.lig_0>
-73.8187

>  <SCORE.INTRA.VDW>
0.6125

>  <SCORE.INTRA.VDW.0>
-1.32335

>  <SCORE.INTRA.norm>
0.106314

>  <SCORE.RESTR>
0

>  <SCORE.RESTR.CAVITY>
0

>  <SCORE.RESTR.norm>
0

>  <SCORE.SYSTEM>
0

>  <SCORE.SYSTEM.CONST>
0

>  <SCORE.SYSTEM.DIHEDRAL>
0

>  <SCORE.SYSTEM.SOLV>
0

>  <SCORE.SYSTEM.norm>
0

>  <SCORE.heavy>
22

>  <SCORE.norm>
-0.415973

>  <RMSD>
6.765

$$$$
2fcx_lig
 OpenBabel11021811433D
libRbt.so/2013.1/901 2013/11/27
 22 23  0  0  0  0  0  0  0  0999 V2000
   25.4873    9.9956    5.9797 N   0  0  0  0  0  0  0  0  0  0  0  0
   27.2450   13.3714    9.0764 N   0  0  0  0  0  0  0  0  0  0  0  0
   31.2618   14.3348   10.1638 N   0  0  0  0  0  0  0  0  0  0  0  0
   28.2882    8.6661    9.7487 O   0  0  0  0  0  0  0  0  0  0  0  0
   27.2700    9.5759    9.3235 C   0  0  2  0  0  0  0  0  0  0  0  0
   27.9187    9.6051   13.1947 N   0  0  0  0  0  0  0  0  0  0  0  0
   26.3089    7.9502    7.8431 O   0  0  0  0  0  0  0  0  0  0  0  0
   26.8656    9.2696    7.8795 C   0  0  1  0  0  0  0  0  0  0  0  0
   27.9525   11.3132   10.8878 O   0  0  0  0  0  0  0  0  0  0  0  0
   25.8267   10.2773    7.3822 C   0  0  1  0  0  0  0  0  0  0  0  0
   30.2400   11.7249   11.1869 O   0  0  0  0  0  0  0  0  0  0  0  0
   26.3679   11.7068    7.4910 C   0  0  0  0  0  0  0  0  0  0  0  0
   29.6659   14.0593   13.9980 O   0  0  0  0  0  0  0  0  0  0  0  0
   26.7206   12.0041    8.9511 C   0  0  1  0  0  0  0  0  0  0  0  0
   28.7065   11.6215   15.0782 O   0  0  0  0  0  0  0  0  0  0  0  0
   27.7600   11.0190    9.4941 C   0  0  2  0  0  0  0  0  0  0  0  0
   29.1773   10.7829   11.4230 C   0  0  1  0  0  0  0  0  0  0  0  0
   30.0587   12.9929   11.8488 C   0  0  2  0  0  0  0  0  0  0  0  0
   31.2481   13.9155   11.5732 C   0  0  0  0  0  0  0  0  0  0  0  0
   29.9350   12.8053   13.3634 C   0  0  2  0  0  0  0  0  0  0  0  0
   28.7831   11.8466   13.6693 C   0  0  1  0  0  0  0  0  0  0  0  0
   29.0288   10.5296   12.9282 C   0  0  1  0  0  0  0  0  0  0  0  0
  5  4  1  6  0  0  0
  5  8  1  0  0  0  0
  5 16  1  0  0  0  0
  8  7  1  1  0  0  0
  8 10  1  0  0  0  0
 10  1  1  6  0  0  0
 10 12  1  0  0  0  0
 11 18  1  0  0  0  0
 12 14  1  0  0  0  0
 14  2  1  6  0  0  0
 14 16  1  0  0  0  0
 16  9  1  1  0  0  0
 17  9  1  1  0  0  0
 17 11  1  0  0  0  0
 17 22  1  0  0  0  0
 18 19  1  1  0  0  0
 18 20  1  0  0  0  0
 19  3  1  0  0  0  0
 20 13  1  1  0  0  0
 20 21  1  0  0  0  0
 21 15  1  1  0  0  0
 21 22  1  0  0  0  0
 22  6  1  6  0  0  0
M  END
>  <CHROM.1>
78.57644587,86.25150846,69.05239897,28.29199252,11.32505881,10.59974527,-2.71486359
1.00647321,2.15987299

>  <Name>
2fcx_lig

>  <RI>
4.08374e+07

>  <Rbt.Current_Directory>
/home/itssahil/PROJECTS/Mol_Feturizer/New_Systems/rnas/2fcx

>  <Rbt.Executable>
rbdock ($Id: //depot/dev/client3/rdock/2013.1/src/exe/rbdock.cxx#4 $)

>  <Rbt.Library>
libRbt.so (2013.1, Build901 2013/11/27)

>  <Rbt.Parameter_File>
/export/apps/rDock/src/rDock_2013.1_src/data/scripts/dock_solv.prm

>  <Rbt.Receptor>
prm/pocket_docking_7.prm

>  <SCORE>
-9.94581

>  <SCORE.INTER>
-9.79589

>  <SCORE.INTER.CONST>
1

>  <SCORE.INTER.POLAR>
-2.16185

>  <SCORE.INTER.ROT>
3

>  <SCORE.INTER.SOLV>
14.5725

>  <SCORE.INTER.VDW>
-9.78194

>  <SCORE.INTER.norm>
-0.445268

>  <SCORE.INTRA>
-0.149921

>  <SCORE.INTRA.DIHEDRAL>
-0.122502

>  <SCORE.INTRA.DIHEDRAL.0>
4.88619

>  <SCORE.INTRA.POLAR>
0

>  <SCORE.INTRA.POLAR.0>
0

>  <SCORE.INTRA.REPUL>
0

>  <SCORE.INTRA.REPUL.0>
0

>  <SCORE.INTRA.SOLV>
0.147884

>  <SCORE.INTRA.SOLV.lig_0>
-73.8187

>  <SCORE.INTRA.VDW>
-0.162611

>  <SCORE.INTRA.VDW.0>
-1.32335

>  <SCORE.INTRA.norm>
-0.00681458

>  <SCORE.RESTR>
0

>  <SCORE.RESTR.CAVITY>
0

>  <SCORE.RESTR.norm>
0

>  <SCORE.SYSTEM>
0

>  <SCORE.SYSTEM.CONST>
0

>  <SCORE.SYSTEM.DIHEDRAL>
0

>  <SCORE.SYSTEM.SOLV>
0

>  <SCORE.SYSTEM.norm>
0

>  <SCORE.heavy>
22

>  <SCORE.norm>
-0.452082

>  <RMSD>
6.788

$$$$
2fcx_lig
 OpenBabel11021811433D
libRbt.so/2013.1/901 2013/11/27
 22 23  0  0  0  0  0  0  0  0999 V2000
   30.4116   17.3008   18.2046 N   0  0  0  0  0  0  0  0  0  0  0  0
   29.7690   16.4077   13.4229 N   0  0  0  0  0  0  0  0  0  0  0  0
   27.3575   13.9532    9.4257 N   0  0  0  0  0  0  0  0  0  0  0  0
   29.0326   12.8727   16.6850 O   0  0  0  0  0  0  0  0  0  0  0  0
   29.8466   14.0060   16.3714 C   0  0  2  0  0  0  0  0  0  0  0  0
   30.5481   10.8954   14.2343 N   0  0  0  0  0  0  0  0  0  0  0  0
   30.2677   14.4592   18.6899 O   0  0  0  0  0  0  0  0  0  0  0  0
   29.7484   15.0455   17.4905 C   0  0  1  0  0  0  0  0  0  0  0  0
   29.7155   13.6297   13.9688 O   0  0  0  0  0  0  0  0  0  0  0  0
   30.5574   16.2966   17.1406 C   0  0  1  0  0  0  0  0  0  0  0  0
   27.6898   12.9524   13.0047 O   0  0  0  0  0  0  0  0  0  0  0  0
   30.0763   16.8957   15.8148 C   0  0  0  0  0  0  0  0  0  0  0  0
   29.2561   12.1922    9.7412 O   0  0  0  0  0  0  0  0  0  0  0  0
   30.2285   15.8528   14.7040 C   0  0  1  0  0  0  0  0  0  0  0  0
   30.5076   10.2911   11.4294 O   0  0  0  0  0  0  0  0  0  0  0  0
   29.4342   14.5797   15.0102 C   0  0  2  0  0  0  0  0  0  0  0  0
   28.7554   12.5621   13.8905 C   0  0  1  0  0  0  0  0  0  0  0  0
   28.1104   13.1799   11.6445 C   0  0  2  0  0  0  0  0  0  0  0  0
   26.9122   13.5537   10.7690 C   0  0  0  0  0  0  0  0  0  0  0  0
   28.7633   11.9253   11.0579 C   0  0  2  0  0  0  0  0  0  0  0  0
   29.9368   11.4971   11.9405 C   0  0  1  0  0  0  0  0  0  0  0  0
   29.4272   11.2861   13.3687 C   0  0  1  0  0  0  0  0  0  0  0  0
  5  4  1  1  0  0  0
  5  8  1  0  0  0  0
  5 16  1  0  0  0  0
  8  7  1  1  0  0  0
  8 10  1  0  0  0  0
 10  1  1  1  0  0  0
 10 12  1  0  0  0  0
 11 18  1  0  0  0  0
 12 14  1  0  0  0  0
 14  2  1  6  0  0  0
 14 16  1  0  0  0  0
 16  9  1  6  0  0  0
 17  9  1  6  0  0  0
 17 11  1  0  0  0  0
 17 22  1  0  0  0  0
 18 19  1  6  0  0  0
 18 20  1  0  0  0  0
 19  3  1  0  0  0  0
 20 13  1  6  0  0  0
 20 21  1  0  0  0  0
 21 15  1  6  0  0  0
 21 22  1  0  0  0  0
 22  6  1  1  0  0  0
M  END
>  <CHROM.1>
77.46236384,89.43083488,172.75936449,29.37755235,13.67596903,13.98889419
0.98654785,-1.21685217,0.51099615

>  <Name>
2fcx_lig

>  <RI>
1.15031e+07

>  <Rbt.Current_Directory>
/home/itssahil/PROJECTS/Mol_Feturizer/New_Systems/rnas/2fcx

>  <Rbt.Executable>
rbdock ($Id: //depot/dev/client3/rdock/2013.1/src/exe/rbdock.cxx#4 $)

>  <Rbt.Library>
libRbt.so (2013.1, Build901 2013/11/27)

>  <Rbt.Parameter_File>
/export/apps/rDock/src/rDock_2013.1_src/data/scripts/dock_solv.prm

>  <Rbt.Receptor>
prm/pocket_docking_8.prm

>  <SCORE>
-16.2171

>  <SCORE.INTER>
-17.2822

>  <SCORE.INTER.CONST>
1

>  <SCORE.INTER.POLAR>
-2.73298

>  <SCORE.INTER.ROT>
3

>  <SCORE.INTER.SOLV>
16.9874

>  <SCORE.INTER.VDW>
-13.674

>  <SCORE.INTER.norm>
-0.785554

>  <SCORE.INTRA>
1.0651

>  <SCORE.INTRA.DIHEDRAL>
0.207357

>  <SCORE.INTRA.DIHEDRAL.0>
4.88619

>  <SCORE.INTRA.POLAR>
0

>  <SCORE.INTRA.POLAR.0>
0

>  <SCORE.INTRA.REPUL>
0

>  <SCORE.INTRA.REPUL.0>
0

>  <SCORE.INTRA.SOLV>
1.33313

>  <SCORE.INTRA.SOLV.lig_0>
-73.8187

>  <SCORE.INTRA.VDW>
0.294863

>  <SCORE.INTRA.VDW.0>
-1.32335

>  <SCORE.INTRA.norm>
0.0484138

>  <SCORE.RESTR>
0

>  <SCORE.RESTR.CAVITY>
0

>  <SCORE.RESTR.norm>
0

>  <SCORE.SYSTEM>
0

>  <SCORE.SYSTEM.CONST>
0

>  <SCORE.SYSTEM.DIHEDRAL>
0

>  <SCORE.SYSTEM.SOLV>
0

>  <SCORE.SYSTEM.norm>
0

>  <SCORE.heavy>
22

>  <SCORE.norm>
-0.73714

>  <RMSD>
6.811

$$$$
2fcx_lig
 OpenBabel11021811433D
libRbt.so/2013.1/901 2013/11/27
 22 23  0  0  0  0  0  0  0  0999 V2000
   25.6640    9.8906    5.9319 N   0  0  0  0  0  0  0  0  0  0  0  0
   27.2598   13.3183    9.0592 N   0  0  0  0  0  0  0  0  0  0  0  0
   31.0139   15.3079   11.6514 N   0  0  0  0  0  0  0  0  0  0  0  0
   28.3681    8.6377    9.7968 O   0  0  0  0  0  0  0  0  0  0  0  0
   27.3472    9.5256    9.3333 C   0  0  2  0  0  0  0  0  0  0  0  0
   27.9156    9.8069   13.3668 N   0  0  0  0  0  0  0  0  0  0  0  0
   26.4638    7.8728    7.8345 O   0  0  0  0  0  0  0  0  0  0  0  0
   26.9946    9.2026    7.8794 C   0  0  1  0  0  0  0  0  0  0  0  0
   27.9474   11.2853   10.9063 O   0  0  0  0  0  0  0  0  0  0  0  0
   25.9534   10.1875    7.3425 C   0  0  1  0  0  0  0  0  0  0  0  0
   30.2420   11.6963   11.1461 O   0  0  0  0  0  0  0  0  0  0  0  0
   26.4644   11.6276    7.4584 C   0  0  0  0  0  0  0  0  0  0  0  0
   29.7196   14.2964   13.7245 O   0  0  0  0  0  0  0  0  0  0  0  0
   26.7650   11.9407    8.9268 C   0  0  1  0  0  0  0  0  0  0  0  0
   28.7430   11.9851   15.0415 O   0  0  0  0  0  0  0  0  0  0  0  0
   27.8048   10.9787    9.5093 C   0  0  2  0  0  0  0  0  0  0  0  0
   29.1710   10.7941   11.4801 C   0  0  1  0  0  0  0  0  0  0  0  0
   30.0809   13.0241   11.6846 C   0  0  2  0  0  0  0  0  0  0  0  0
   31.2779   13.9017   11.3121 C   0  0  0  0  0  0  0  0  0  0  0  0
   29.9689   12.9842   13.2111 C   0  0  2  0  0  0  0  0  0  0  0  0
   28.8093   12.0731   13.6169 C   0  0  1  0  0  0  0  0  0  0  0  0
   29.0335   10.6882   13.0038 C   0  0  1  0  0  0  0  0  0  0  0  0
  5  4  1  6  0  0  0
  5  8  1  0  0  0  0
  5 16  1  0  0  0  0
  8  7  1  1  0  0  0
  8 10  1  0  0  0  0
 10  1  1  6  0  0  0
 10 12  1  0  0  0  0
 11 18  1  0  0  0  0
 12 14  1  0  0  0  0
 14  2  1  6  0  0  0
 14 16  1  0  0  0  0
 16  9  1  1  0  0  0
 17  9  1  6  0  0  0
 17 11  1  0  0  0  0
 17 22  1  0  0  0  0
 18 19  1  1  0  0  0
 18 20  1  0  0  0  0
 19  3  1  0  0  0  0
 20 13  1  6  0  0  0
 20 21  1  0  0  0  0
 21 15  1  1  0  0  0
 21 22  1  0  0  0  0
 22  6  1  6  0  0  0
M  END
>  <CHROM.1>
79.22392599,80.13939480,170.07949298,28.33272898,11.40175703,10.63182074
-2.87360253,1.06683419,2.27821049

>  <Name>
2fcx_lig

>  <RI>
1.15031e+07

>  <Rbt.Current_Directory>
/home/itssahil/PROJECTS/Mol_Feturizer/New_Systems/rnas/2fcx

>  <Rbt.Executable>
rbdock ($Id: //depot/dev/client3/rdock/2013.1/src/exe/rbdock.cxx#4 $)

>  <Rbt.Library>
libRbt.so (2013.1, Build901 2013/11/27)

>  <Rbt.Parameter_File>
/export/apps/rDock/src/rDock_2013.1_src/data/scripts/dock_solv.prm

>  <Rbt.Receptor>
prm/pocket_docking_8.prm

>  <SCORE>
-10.8462

>  <SCORE.INTER>
-11.0066

>  <SCORE.INTER.CONST>
1

>  <SCORE.INTER.POLAR>
-1.80186

>  <SCORE.INTER.ROT>
3

>  <SCORE.INTER.SOLV>
8.93975

>  <SCORE.INTER.VDW>
-9.91146

>  <SCORE.INTER.norm>
-0.500301

>  <SCORE.INTRA>
0.160428

>  <SCORE.INTRA.DIHEDRAL>
-1.02828

>  <SCORE.INTRA.DIHEDRAL.0>
4.88619

>  <SCORE.INTRA.POLAR>
0

>  <SCORE.INTRA.POLAR.0>
0

>  <SCORE.INTRA.REPUL>
0

>  <SCORE.INTRA.REPUL.0>
0

>  <SCORE.INTRA.SOLV>
1.08294

>  <SCORE.INTRA.SOLV.lig_0>
-73.8187

>  <SCORE.INTRA.VDW>
0.133095

>  <SCORE.INTRA.VDW.0>
-1.32335

>  <SCORE.INTRA.norm>
0.00729219

>  <SCORE.RESTR>
0

>  <SCORE.RESTR.CAVITY>
0

>  <SCORE.RESTR.norm>
0

>  <SCORE.SYSTEM>
0

>  <SCORE.SYSTEM.CONST>
0

>  <SCORE.SYSTEM.DIHEDRAL>
0

>  <SCORE.SYSTEM.SOLV>
0

>  <SCORE.SYSTEM.norm>
0

>  <SCORE.heavy>
22

>  <SCORE.norm>
-0.493008

>  <RMSD>
6.832

$$$$
2fcx_lig
 OpenBabel11021811433D
libRbt.so/2013.1/901 2013/11/27
 22 23  0  0  0  0  0  0  0  0999 V2000
   25.5961    9.8953    5.9610 N   0  0  0  0  0  0  0  0  0  0  0  0
   27.2584   13.3305    9.0450 N   0  0  0  0  0  0  0  0  0  0  0  0
   31.0581   15.3096   11.6392 N   0  0  0  0  0  0  0  0  0  0  0  0
   28.3591    8.6487    9.7860 O   0  0  0  0  0  0  0  0  0  0  0  0
   27.3344    9.5388    9.3354 C   0  0  2  0  0  0  0  0  0  0  0  0
   27.9578    9.8065   13.3395 N   0  0  0  0  0  0  0  0  0  0  0  0
   26.4191    7.8829    7.8594 O   0  0  0  0  0  0  0  0  0  0  0  0
   26.9561    9.2106    7.8891 C   0  0  1  0  0  0  0  0  0  0  0  0
   27.9682   11.3031   10.8899 O   0  0  0  0  0  0  0  0  0  0  0  0
   25.9103   10.1974    7.3651 C   0  0  1  0  0  0  0  0  0  0  0  0
   30.2665   11.7054   11.1085 O   0  0  0  0  0  0  0  0  0  0  0  0
   26.4292   11.6358    7.4657 C   0  0  0  0  0  0  0  0  0  0  0  0
   29.7796   14.2877   13.7115 O   0  0  0  0  0  0  0  0  0  0  0  0
   26.7557   11.9544    8.9274 C   0  0  1  0  0  0  0  0  0  0  0  0
   28.8097   11.9696   15.0215 O   0  0  0  0  0  0  0  0  0  0  0  0
   27.8010   10.9907    9.4969 C   0  0  2  0  0  0  0  0  0  0  0  0
   29.1963   10.8040   11.4470 C   0  0  1  0  0  0  0  0  0  0  0  0
   30.1153   13.0295   11.6585 C   0  0  2  0  0  0  0  0  0  0  0  0
   31.3110   13.9063   11.2799 C   0  0  0  0  0  0  0  0  0  0  0  0
   30.0193   12.9786   13.1858 C   0  0  2  0  0  0  0  0  0  0  0  0
   28.8612   12.0680   13.5970 C   0  0  1  0  0  0  0  0  0  0  0  0
   29.0746   10.6871   12.9713 C   0  0  1  0  0  0  0  0  0  0  0  0
  5  4  1  6  0  0  0
  5  8  1  0  0  0  0
  5 16  1  0  0  0  0
  8  7  1  1  0  0  0
  8 10  1  0  0  0  0
 10  1  1  6  0  0  0
 10 12  1  0  0  0  0
 11 18  1  0  0  0  0
 12 14  1  0  0  0  0
 14  2  1  6  0  0  0
 14 16  1  0  0  0  0
 16  9  1  1  0  0  0
 17  9  1  1  0  0  0
 17 11  1  0  0  0  0
 17 22  1  0  0  0  0
 18 19  1  1  0  0  0
 18 20  1  0  0  0  0
 19  3  1  0  0  0  0
 20 13  1  6  0  0  0
 20 21  1  0  0  0  0
 21 15  1  1  0  0  0
 21 22  1  0  0  0  0
 22  6  1  6  0  0  0
M  END
>  <CHROM.1>
78.94809647,80.98950780,170.39514777,28.34352458,11.40692534,10.62102222
-2.89267021,1.05463707,2.29524488

>  <Name>
2fcx_lig

>  <RI>
1.15031e+07

>  <Rbt.Current_Directory>
/home/itssahil/PROJECTS/Mol_Feturizer/New_Systems/rnas/2fcx

>  <Rbt.Executable>
rbdock ($Id: //depot/dev/client3/rdock/2013.1/src/exe/rbdock.cxx#4 $)

>  <Rbt.Library>
libRbt.so (2013.1, Build901 2013/11/27)

>  <Rbt.Parameter_File>
/export/apps/rDock/src/rDock_2013.1_src/data/scripts/dock_solv.prm

>  <Rbt.Receptor>
prm/pocket_docking_8.prm

>  <SCORE>
-10.8123

>  <SCORE.INTER>
-11.0346

>  <SCORE.INTER.CONST>
1

>  <SCORE.INTER.POLAR>
-1.80953

>  <SCORE.INTER.ROT>
3

>  <SCORE.INTER.SOLV>
8.94596

>  <SCORE.INTER.VDW>
-9.90661

>  <SCORE.INTER.norm>
-0.501573

>  <SCORE.INTRA>
0.222289

>  <SCORE.INTRA.DIHEDRAL>
-0.952432

>  <SCORE.INTRA.DIHEDRAL.0>
4.88619

>  <SCORE.INTRA.POLAR>
0

>  <SCORE.INTRA.POLAR.0>
0

>  <SCORE.INTRA.REPUL>
0

>  <SCORE.INTRA.REPUL.0>
0

>  <SCORE.INTRA.SOLV>
1.0931

>  <SCORE.INTRA.SOLV.lig_0>
-73.8187

>  <SCORE.INTRA.VDW>
0.151953

>  <SCORE.INTRA.VDW.0>
-1.32335

>  <SCORE.INTRA.norm>
0.010104

>  <SCORE.RESTR>
0

>  <SCORE.RESTR.CAVITY>
0

>  <SCORE.RESTR.norm>
0

>  <SCORE.SYSTEM>
0

>  <SCORE.SYSTEM.CONST>
0

>  <SCORE.SYSTEM.DIHEDRAL>
0

>  <SCORE.SYSTEM.SOLV>
0

>  <SCORE.SYSTEM.norm>
0

>  <SCORE.heavy>
22

>  <SCORE.norm>
-0.491469

>  <RMSD>
6.851

$$$$
2fcx_lig
 OpenBabel11021811433D
libRbt.so/2013.1/901 2013/11/27
 22 23  0  0  0  0  0  0  0  0999 V2000
   26.0571   10.8709    5.0426 N   0  0  0  0  0  0  0  0  0  0  0  0
   26.1081   12.9473    9.4879 N   0  0  0  0  0  0  0  0  0  0  0  0
   31.5657   13.7130   11.6702 N   0  0  0  0  0  0  0  0  0  0  0  0
   29.0284    9.1761    8.5237 O   0  0  0  0  0  0  0  0  0  0  0  0
   27.7351    9.7318    8.2710 C   0  0  2  0  0  0  0  0  0  0  0  0
   27.8995    9.1082   12.8287 N   0  0  0  0  0  0  0  0  0  0  0  0
   27.6065    8.6848    6.1157 O   0  0  0  0  0  0  0  0  0  0  0  0
   27.5482    9.9583    6.7689 C   0  0  1  0  0  0  0  0  0  0  0  0
   27.5614   10.7311   10.4851 O   0  0  0  0  0  0  0  0  0  0  0  0
   26.1970   10.6181    6.4842 C   0  0  1  0  0  0  0  0  0  0  0  0
   29.7148   11.6169   10.7492 O   0  0  0  0  0  0  0  0  0  0  0  0
   26.0755   11.9450    7.2412 C   0  0  0  0  0  0  0  0  0  0  0  0
   28.6853   13.8463   13.5154 O   0  0  0  0  0  0  0  0  0  0  0  0
   26.2189   11.6850    8.7434 C   0  0  1  0  0  0  0  0  0  0  0  0
   28.2622   11.2883   14.6590 O   0  0  0  0  0  0  0  0  0  0  0  0
   27.5594   11.0241    9.0779 C   0  0  2  0  0  0  0  0  0  0  0  0
   28.8733   10.4802   11.0177 C   0  0  1  0  0  0  0  0  0  0  0  0
   29.2776   12.8347   11.3855 C   0  0  2  0  0  0  0  0  0  0  0  0
   30.2467   13.9780   11.0764 C   0  0  0  0  0  0  0  0  0  0  0  0
   29.2057   12.6613   12.9050 C   0  0  2  0  0  0  0  0  0  0  0  0
   28.2809   11.4912   13.2447 C   0  0  1  0  0  0  0  0  0  0  0  0
   28.7908   10.2371   12.5296 C   0  0  1  0  0  0  0  0  0  0  0  0
  5  4  1  6  0  0  0
  5  8  1  0  0  0  0
  5 16  1  0  0  0  0
  8  7  1  6  0  0  0
  8 10  1  0  0  0  0
 10  1  1  6  0  0  0
 10 12  1  0  0  0  0
 11 18  1  0  0  0  0
 12 14  1  0  0  0  0
 14  2  1  1  0  0  0
 14 16  1  0  0  0  0
 16  9  1  1  0  0  0
 17  9  1  1  0  0  0
 17 11  1  0  0  0  0
 17 22  1  0  0  0  0
 18 19  1  1  0  0  0
 18 20  1  0  0  0  0
 19  3  1  0  0  0  0
 20 13  1  1  0  0  0
 20 21  1  0  0  0  0
 21 15  1  1  0  0  0
 21 22  1  0  0  0  0
 22  6  1  6  0  0  0
M  END
>  <CHROM.1>
76.99786257,56.90763970,-65.11531924,28.13215448,11.29294448,10.10682650
-2.92701281,1.22004618,2.60130604

>  <Name>
2fcx_lig

>  <RI>
1.15031e+07

>  <Rbt.Current_Directory>
/home/itssahil/PROJECTS/Mol_Feturizer/New_Systems/rnas/2fcx

>  <Rbt.Executable>
rbdock ($Id: //depot/dev/client3/rdock/2013.1/src/exe/rbdock.cxx#4 $)

>  <Rbt.Library>
libRbt.so (2013.1, Build901 2013/11/27)

>  <Rbt.Parameter_File>
/export/apps/rDock/src/rDock_2013.1_src/data/scripts/dock_solv.prm

>  <Rbt.Receptor>
prm/pocket_docking_8.prm

>  <SCORE>
-8.12881

>  <SCORE.INTER>
-7.08297

>  <SCORE.INTER.CONST>
1

>  <SCORE.INTER.POLAR>
-0.637646

>  <SCORE.INTER.ROT>
3

>  <SCORE.INTER.SOLV>
16.5249

>  <SCORE.INTER.VDW>
-13.7048

>  <SCORE.INTER.norm>
-0.321953

>  <SCORE.INTRA>
-1.04584

>  <SCORE.INTRA.DIHEDRAL>
-3.39977

>  <SCORE.INTRA.DIHEDRAL.0>
4.88619

>  <SCORE.INTRA.POLAR>
0

>  <SCORE.INTRA.POLAR.0>
0

>  <SCORE.INTRA.REPUL>
0

>  <SCORE.INTRA.REPUL.0>
0

>  <SCORE.INTRA.SOLV>
0.931957

>  <SCORE.INTRA.SOLV.lig_0>
-73.8187

>  <SCORE.INTRA.VDW>
0.188066

>  <SCORE.INTRA.VDW.0>
-1.32335

>  <SCORE.INTRA.norm>
-0.0475383

>  <SCORE.RESTR>
0

>  <SCORE.RESTR.CAVITY>
0

>  <SCORE.RESTR.norm>
0

>  <SCORE.SYSTEM>
0

>  <SCORE.SYSTEM.CONST>
0

>  <SCORE.SYSTEM.DIHEDRAL>
0

>  <SCORE.SYSTEM.SOLV>
0

>  <SCORE.SYSTEM.norm>
0

>  <SCORE.heavy>
22

>  <SCORE.norm>
-0.369491

>  <RMSD>
6.853

$$$$
2fcx_lig
 OpenBabel11021811433D
libRbt.so/2013.1/901 2013/11/27
 22 23  0  0  0  0  0  0  0  0999 V2000
   29.7279    9.7678   16.1017 N   0  0  0  0  0  0  0  0  0  0  0  0
   29.2555   12.4077   11.9928 N   0  0  0  0  0  0  0  0  0  0  0  0
   24.5341   12.5624   11.4431 N   0  0  0  0  0  0  0  0  0  0  0  0
   27.1344    8.0422   12.3446 O   0  0  0  0  0  0  0  0  0  0  0  0
   28.2946    8.7970   12.7048 C   0  0  2  0  0  0  0  0  0  0  0  0
   28.5104    8.5083    8.2936 N   0  0  0  0  0  0  0  0  0  0  0  0
   28.6334    7.4981   14.6939 O   0  0  0  0  0  0  0  0  0  0  0  0
   28.4386    8.8387   14.2280 C   0  0  1  0  0  0  0  0  0  0  0  0
   28.2614   10.1167   10.6583 O   0  0  0  0  0  0  0  0  0  0  0  0
   29.6353    9.7011   14.6358 C   0  0  1  0  0  0  0  0  0  0  0  0
   25.9493   10.3046   10.3252 O   0  0  0  0  0  0  0  0  0  0  0  0
   29.4917   11.1205   14.0763 C   0  0  0  0  0  0  0  0  0  0  0  0
   26.3309   12.7887    7.6114 O   0  0  0  0  0  0  0  0  0  0  0  0
   29.3969   11.0548   12.5494 C   0  0  1  0  0  0  0  0  0  0  0  0
   27.5536   10.5031    6.4663 O   0  0  0  0  0  0  0  0  0  0  0  0
   28.2108   10.2005   12.0923 C   0  0  2  0  0  0  0  0  0  0  0  0
   27.1069    9.4851   10.0787 C   0  0  1  0  0  0  0  0  0  0  0  0
   26.0115   11.6084    9.7126 C   0  0  2  0  0  0  0  0  0  0  0  0
   24.7293   12.3944    9.9953 C   0  0  0  0  0  0  0  0  0  0  0  0
   26.1804   11.4911    8.1954 C   0  0  2  0  0  0  0  0  0  0  0  0
   27.4296   10.6665    7.8803 C   0  0  1  0  0  0  0  0  0  0  0  0
   27.3070    9.3046    8.5690 C   0  0  1  0  0  0  0  0  0  0  0  0
  5  4  1  1  0  0  0
  5  8  1  0  0  0  0
  5 16  1  0  0  0  0
  8  7  1  6  0  0  0
  8 10  1  0  0  0  0
 10  1  1  1  0  0  0
 10 12  1  0  0  0  0
 11 18  1  0  0  0  0
 12 14  1  0  0  0  0
 14  2  1  1  0  0  0
 14 16  1  0  0  0  0
 16  9  1  6  0  0  0
 17  9  1  6  0  0  0
 17 11  1  0  0  0  0
 17 22  1  0  0  0  0
 18 19  1  6  0  0  0
 18 20  1  0  0  0  0
 19  3  1  0  0  0  0
 20 13  1  6  0  0  0
 20 21  1  0  0  0  0
 21 15  1  6  0  0  0
 21 22  1  0  0  0  0
 22  6  1  1  0  0  0
M  END
>  <CHROM.1>
67.16095794,65.25207006,59.59387483,27.62405918,10.31511536,11.09260880,0.80675467
-1.01035167,1.18266862

>  <Name>
2fcx_lig

>  <RI>
4.08374e+07

>  <Rbt.Current_Directory>
/home/itssahil/PROJECTS/Mol_Feturizer/New_Systems/rnas/2fcx

>  <Rbt.Executable>
rbdock ($Id: //depot/dev/client3/rdock/2013.1/src/exe/rbdock.cxx#4 $)

>  <Rbt.Library>
libRbt.so (2013.1, Build901 2013/11/27)

>  <Rbt.Parameter_File>
/export/apps/rDock/src/rDock_2013.1_src/data/scripts/dock_solv.prm

>  <Rbt.Receptor>
prm/pocket_docking_7.prm

>  <SCORE>
-12.9612

>  <SCORE.INTER>
-10.9555

>  <SCORE.INTER.CONST>
1

>  <SCORE.INTER.POLAR>
-1.70827

>  <SCORE.INTER.ROT>
3

>  <SCORE.INTER.SOLV>
11.0309

>  <SCORE.INTER.VDW>
-10.8864

>  <SCORE.INTER.norm>
-0.497977

>  <SCORE.INTRA>
-2.00573

>  <SCORE.INTRA.DIHEDRAL>
-4.49133

>  <SCORE.INTRA.DIHEDRAL.0>
4.88619

>  <SCORE.INTRA.POLAR>
0

>  <SCORE.INTRA.POLAR.0>
0

>  <SCORE.INTRA.REPUL>
0

>  <SCORE.INTRA.REPUL.0>
0

>  <SCORE.INTRA.SOLV>
-0.842562

>  <SCORE.INTRA.SOLV.lig_0>
-73.8187

>  <SCORE.INTRA.VDW>
0.661217

>  <SCORE.INTRA.VDW.0>
-1.32335

>  <SCORE.INTRA.norm>
-0.0911694

>  <SCORE.RESTR>
0

>  <SCORE.RESTR.CAVITY>
0

>  <SCORE.RESTR.norm>
0

>  <SCORE.SYSTEM>
0

>  <SCORE.SYSTEM.CONST>
0

>  <SCORE.SYSTEM.DIHEDRAL>
0

>  <SCORE.SYSTEM.SOLV>
0

>  <SCORE.SYSTEM.norm>
0

>  <SCORE.heavy>
22

>  <SCORE.norm>
-0.589146

>  <RMSD>
6.953

$$$$
2fcx_lig
 OpenBabel11021811433D
libRbt.so/2013.1/901 2013/11/27
 22 23  0  0  0  0  0  0  0  0999 V2000
   28.8886    8.1789   15.9433 N   0  0  0  0  0  0  0  0  0  0  0  0
   25.9709    8.5353   12.0145 N   0  0  0  0  0  0  0  0  0  0  0  0
   28.4711    7.8121    8.2329 N   0  0  0  0  0  0  0  0  0  0  0  0
   29.9348   11.3354   12.3710 O   0  0  0  0  0  0  0  0  0  0  0  0
   28.8709   10.7363   13.1158 C   0  0  2  0  0  0  0  0  0  0  0  0
   26.9876   13.7211   10.6158 N   0  0  0  0  0  0  0  0  0  0  0  0
   30.2149   10.5995   15.0990 O   0  0  0  0  0  0  0  0  0  0  0  0
   29.4431    9.8070   14.1889 C   0  0  1  0  0  0  0  0  0  0  0  0
   27.2696   10.9457   11.2928 O   0  0  0  0  0  0  0  0  0  0  0  0
   28.3186    9.1019   14.9509 C   0  0  1  0  0  0  0  0  0  0  0  0
   28.5689   10.5779    9.3776 O   0  0  0  0  0  0  0  0  0  0  0  0
   27.4259    8.3140   13.9862 C   0  0  0  0  0  0  0  0  0  0  0  0
   25.6375   10.6367    7.1226 O   0  0  0  0  0  0  0  0  0  0  0  0
   26.8292    9.2729   12.9522 C   0  0  1  0  0  0  0  0  0  0  0  0
   25.6428   13.2900    8.1178 O   0  0  0  0  0  0  0  0  0  0  0  0
   27.9192   10.0034   12.1623 C   0  0  2  0  0  0  0  0  0  0  0  0
   28.1594   11.5614   10.3458 C   0  0  1  0  0  0  0  0  0  0  0  0
   27.4869   10.0469    8.5862 C   0  0  2  0  0  0  0  0  0  0  0  0
   28.0163    9.0396    7.5630 C   0  0  0  0  0  0  0  0  0  0  0  0
   26.7626   11.1650    7.8316 C   0  0  2  0  0  0  0  0  0  0  0  0
   26.2636   12.2152    8.8255 C   0  0  1  0  0  0  0  0  0  0  0  0
   27.4545   12.7265    9.6405 C   0  0  1  0  0  0  0  0  0  0  0  0
  5  4  1  6  0  0  0
  5  8  1  0  0  0  0
  5 16  1  0  0  0  0
  8  7  1  1  0  0  0
  8 10  1  0  0  0  0
 10  1  1  1  0  0  0
 10 12  1  0  0  0  0
 11 18  1  0  0  0  0
 12 14  1  0  0  0  0
 14  2  1  6  0  0  0
 14 16  1  0  0  0  0
 16  9  1  6  0  0  0
 17  9  1  1  0  0  0
 17 11  1  0  0  0  0
 17 22  1  0  0  0  0
 18 19  1  6  0  0  0
 18 20  1  0  0  0  0
 19  3  1  0  0  0  0
 20 13  1  1  0  0  0
 20 21  1  0  0  0  0
 21 15  1  6  0  0  0
 21 22  1  0  0  0  0
 22  6  1  1  0  0  0
M  END
>  <CHROM.1>
68.45262877,69.74615687,70.14908133,27.75656487,10.46054443,11.08034129,0.19583763
1.26140248,-3.05715606

>  <Name>
2fcx_lig

>  <RI>
4.08374e+07

>  <Rbt.Current_Directory>
/home/itssahil/PROJECTS/Mol_Feturizer/New_Systems/rnas/2fcx

>  <Rbt.Executable>
rbdock ($Id: //depot/dev/client3/rdock/2013.1/src/exe/rbdock.cxx#4 $)

>  <Rbt.Library>
libRbt.so (2013.1, Build901 2013/11/27)

>  <Rbt.Parameter_File>
/export/apps/rDock/src/rDock_2013.1_src/data/scripts/dock_solv.prm

>  <Rbt.Receptor>
prm/pocket_docking_7.prm

>  <SCORE>
-14.1938

>  <SCORE.INTER>
-12.426

>  <SCORE.INTER.CONST>
1

>  <SCORE.INTER.POLAR>
-1.80749

>  <SCORE.INTER.ROT>
3

>  <SCORE.INTER.SOLV>
9.25535

>  <SCORE.INTER.VDW>
-10.9442

>  <SCORE.INTER.norm>
-0.564819

>  <SCORE.INTRA>
-1.76774

>  <SCORE.INTRA.DIHEDRAL>
-3.71428

>  <SCORE.INTRA.DIHEDRAL.0>
4.88619

>  <SCORE.INTRA.POLAR>
0

>  <SCORE.INTRA.POLAR.0>
0

>  <SCORE.INTRA.REPUL>
0

>  <SCORE.INTRA.REPUL.0>
0

>  <SCORE.INTRA.SOLV>
-0.822442

>  <SCORE.INTRA.SOLV.lig_0>
-73.8187

>  <SCORE.INTRA.VDW>
0.500622

>  <SCORE.INTRA.VDW.0>
-1.32335

>  <SCORE.INTRA.norm>
-0.0803519

>  <SCORE.RESTR>
0

>  <SCORE.RESTR.CAVITY>
0

>  <SCORE.RESTR.norm>
0

>  <SCORE.SYSTEM>
0

>  <SCORE.SYSTEM.CONST>
0

>  <SCORE.SYSTEM.DIHEDRAL>
0

>  <SCORE.SYSTEM.SOLV>
0

>  <SCORE.SYSTEM.norm>
0

>  <SCORE.heavy>
22

>  <SCORE.norm>
-0.645171

>  <RMSD>
6.973

$$$$
2fcx_lig
 OpenBabel11021811433D
libRbt.so/2013.1/901 2013/11/27
 22 23  0  0  0  0  0  0  0  0999 V2000
   32.1594   13.9971   14.5258 N   0  0  0  0  0  0  0  0  0  0  0  0
   29.6285   14.5597   10.3602 N   0  0  0  0  0  0  0  0  0  0  0  0
   25.4999   14.0129   11.5749 N   0  0  0  0  0  0  0  0  0  0  0  0
   29.4253   10.3471   12.7877 O   0  0  0  0  0  0  0  0  0  0  0  0
   30.2838   11.4307   12.4209 C   0  0  2  0  0  0  0  0  0  0  0  0
   28.9980    9.4575    8.5655 N   0  0  0  0  0  0  0  0  0  0  0  0
   31.6144   11.1655   14.4001 O   0  0  0  0  0  0  0  0  0  0  0  0
   30.8244   12.1171   13.6775 C   0  0  1  0  0  0  0  0  0  0  0  0
   29.2009   11.7623   10.2649 O   0  0  0  0  0  0  0  0  0  0  0  0
   31.6896   13.3237   13.3062 C   0  0  1  0  0  0  0  0  0  0  0  0
   26.9081   11.6549   10.7374 O   0  0  0  0  0  0  0  0  0  0  0  0
   30.8902   14.3192   12.4586 C   0  0  0  0  0  0  0  0  0  0  0  0
   25.9525   13.0672    7.4552 O   0  0  0  0  0  0  0  0  0  0  0  0
   30.4010   13.6214   11.1865 C   0  0  1  0  0  0  0  0  0  0  0  0
   27.1634   10.6218    6.6912 O   0  0  0  0  0  0  0  0  0  0  0  0
   29.5283   12.4045   11.5084 C   0  0  2  0  0  0  0  0  0  0  0  0
   28.0634   10.8870   10.3525 C   0  0  1  0  0  0  0  0  0  0  0  0
   26.5308   12.6670    9.7823 C   0  0  2  0  0  0  0  0  0  0  0  0
   25.2770   13.4069   10.2537 C   0  0  0  0  0  0  0  0  0  0  0  0
   26.2375   12.0445    8.4145 C   0  0  2  0  0  0  0  0  0  0  0  0
   27.4577   11.2549    7.9379 C   0  0  1  0  0  0  0  0  0  0  0  0
   27.8134   10.2103    8.9992 C   0  0  1  0  0  0  0  0  0  0  0  0
  5  4  1  1  0  0  0
  5  8  1  0  0  0  0
  5 16  1  0  0  0  0
  8  7  1  6  0  0  0
  8 10  1  0  0  0  0
 10  1  1  1  0  0  0
 10 12  1  0  0  0  0
 11 18  1  0  0  0  0
 12 14  1  0  0  0  0
 14  2  1  6  0  0  0
 14 16  1  0  0  0  0
 16  9  1  6  0  0  0
 17  9  1  6  0  0  0
 17 11  1  0  0  0  0
 17 22  1  0  0  0  0
 18 19  1  1  0  0  0
 18 20  1  0  0  0  0
 19  3  1  0  0  0  0
 20 13  1  6  0  0  0
 20 21  1  0  0  0  0
 21 15  1  6  0  0  0
 21 22  1  0  0  0  0
 22  6  1  6  0  0  0
M  END
>  <CHROM.1>
78.59847959,61.21204082,57.69372797,28.68831310,12.17427620,10.78833324,0.54622212
-0.67849641,0.58560997

>  <Name>
2fcx_lig

>  <RI>
0

>  <Rbt.Current_Directory>
/home/itssahil/PROJECTS/Mol_Feturizer/New_Systems/rnas/2fcx

>  <Rbt.Executable>
rbdock ($Id: //depot/dev/client3/rdock/2013.1/src/exe/rbdock.cxx#4 $)

>  <Rbt.Library>
libRbt.so (2013.1, Build901 2013/11/27)

>  <Rbt.Parameter_File>
/export/apps/rDock/src/rDock_2013.1_src/data/scripts/dock_solv.prm

>  <Rbt.Receptor>
prm/pocket_docking_6.prm

>  <SCORE>
-13.0213

>  <SCORE.INTER>
-11.1031

>  <SCORE.INTER.CONST>
1

>  <SCORE.INTER.POLAR>
-1.49373

>  <SCORE.INTER.ROT>
3

>  <SCORE.INTER.SOLV>
15.1481

>  <SCORE.INTER.VDW>
-13.0723

>  <SCORE.INTER.norm>
-0.504687

>  <SCORE.INTRA>
-1.91819

>  <SCORE.INTRA.DIHEDRAL>
-3.27371

>  <SCORE.INTRA.DIHEDRAL.0>
4.88619

>  <SCORE.INTRA.POLAR>
0

>  <SCORE.INTRA.POLAR.0>
0

>  <SCORE.INTRA.REPUL>
0

>  <SCORE.INTRA.REPUL.0>
0

>  <SCORE.INTRA.SOLV>
-0.258534

>  <SCORE.INTRA.SOLV.lig_0>
-73.8187

>  <SCORE.INTRA.VDW>
-0.152071

>  <SCORE.INTRA.VDW.0>
-1.32335

>  <SCORE.INTRA.norm>
-0.0871907

>  <SCORE.RESTR>
0

>  <SCORE.RESTR.CAVITY>
0

>  <SCORE.RESTR.norm>
0

>  <SCORE.SYSTEM>
0

>  <SCORE.SYSTEM.CONST>
0

>  <SCORE.SYSTEM.DIHEDRAL>
0

>  <SCORE.SYSTEM.SOLV>
0

>  <SCORE.SYSTEM.norm>
0

>  <SCORE.heavy>
22

>  <SCORE.norm>
-0.591878

>  <RMSD>
6.981

$$$$
2fcx_lig
 OpenBabel11021811433D
libRbt.so/2013.1/901 2013/11/27
 22 23  0  0  0  0  0  0  0  0999 V2000
   28.0707    7.2281   15.8122 N   0  0  0  0  0  0  0  0  0  0  0  0
   25.5947    8.8138   11.8842 N   0  0  0  0  0  0  0  0  0  0  0  0
   28.3844    8.1562    8.3404 N   0  0  0  0  0  0  0  0  0  0  0  0
   29.9463   10.7109   12.9537 O   0  0  0  0  0  0  0  0  0  0  0  0
   28.7360   10.2009   13.5198 C   0  0  2  0  0  0  0  0  0  0  0  0
   27.5682   13.8700   11.3706 N   0  0  0  0  0  0  0  0  0  0  0  0
   29.8671    9.4663   15.5045 O   0  0  0  0  0  0  0  0  0  0  0  0
   29.0455    9.0062   14.4250 C   0  0  1  0  0  0  0  0  0  0  0  0
   27.3521   11.0258   11.6934 O   0  0  0  0  0  0  0  0  0  0  0  0
   27.7557    8.4021   14.9850 C   0  0  1  0  0  0  0  0  0  0  0  0
   28.7166   10.6777    9.8203 O   0  0  0  0  0  0  0  0  0  0  0  0
   26.8208    7.9788   13.8470 C   0  0  0  0  0  0  0  0  0  0  0  0
   26.0103   11.4975    7.4358 O   0  0  0  0  0  0  0  0  0  0  0  0
   26.4892    9.1998   12.9846 C   0  0  1  0  0  0  0  0  0  0  0  0
   26.3639   13.9734    8.7680 O   0  0  0  0  0  0  0  0  0  0  0  0
   27.7520    9.8398   12.4003 C   0  0  2  0  0  0  0  0  0  0  0  0
   28.3975   11.5926   10.8849 C   0  0  1  0  0  0  0  0  0  0  0  0
   27.6265   10.4345    8.9084 C   0  0  2  0  0  0  0  0  0  0  0  0
   28.0639    9.4828    7.7928 C   0  0  0  0  0  0  0  0  0  0  0  0
   27.1486   11.7406    8.2681 C   0  0  2  0  0  0  0  0  0  0  0  0
   26.7502   12.7327    9.3620 C   0  0  1  0  0  0  0  0  0  0  0  0
   27.9426   12.9355   10.3006 C   0  0  1  0  0  0  0  0  0  0  0  0
  5  4  1  6  0  0  0
  5  8  1  0  0  0  0
  5 16  1  0  0  0  0
  8  7  1  1  0  0  0
  8 10  1  0  0  0  0
 10  1  1  6  0  0  0
 10 12  1  0  0  0  0
 11 18  1  0  0  0  0
 12 14  1  0  0  0  0
 14  2  1  6  0  0  0
 14 16  1  0  0  0  0
 16  9  1  1  0  0  0
 17  9  1  6  0  0  0
 17 11  1  0  0  0  0
 17 22  1  0  0  0  0
 18 19  1  6  0  0  0
 18 20  1  0  0  0  0
 19  3  1  0  0  0  0
 20 13  1  6  0  0  0
 20 21  1  0  0  0  0
 21 15  1  6  0  0  0
 21 22  1  0  0  0  0
 22  6  1  1  0  0  0
M  END
>  <CHROM.1>
70.60710708,65.97853301,64.95788904,27.75641285,10.43244282,11.39998629,0.82826478
1.30593601,2.78738161

>  <Name>
2fcx_lig

>  <RI>
0

>  <Rbt.Current_Directory>
/home/itssahil/PROJECTS/Mol_Feturizer/New_Systems/rnas/2fcx

>  <Rbt.Executable>
rbdock ($Id: //depot/dev/client3/rdock/2013.1/src/exe/rbdock.cxx#4 $)

>  <Rbt.Library>
libRbt.so (2013.1, Build901 2013/11/27)

>  <Rbt.Parameter_File>
/export/apps/rDock/src/rDock_2013.1_src/data/scripts/dock_solv.prm

>  <Rbt.Receptor>
prm/pocket_docking_6.prm

>  <SCORE>
-14.1764

>  <SCORE.INTER>
-12.0933

>  <SCORE.INTER.CONST>
1

>  <SCORE.INTER.POLAR>
-1.69478

>  <SCORE.INTER.ROT>
3

>  <SCORE.INTER.SOLV>
12.4873

>  <SCORE.INTER.VDW>
-12.1754

>  <SCORE.INTER.norm>
-0.549695

>  <SCORE.INTRA>
-2.08312

>  <SCORE.INTRA.DIHEDRAL>
-4.07597

>  <SCORE.INTRA.DIHEDRAL.0>
4.88619

>  <SCORE.INTRA.POLAR>
0

>  <SCORE.INTRA.POLAR.0>
0

>  <SCORE.INTRA.REPUL>
0

>  <SCORE.INTRA.REPUL.0>
0

>  <SCORE.INTRA.SOLV>
-0.75115

>  <SCORE.INTRA.SOLV.lig_0>
-73.8187

>  <SCORE.INTRA.VDW>
0.330447

>  <SCORE.INTRA.VDW.0>
-1.32335

>  <SCORE.INTRA.norm>
-0.0946871

>  <SCORE.RESTR>
0

>  <SCORE.RESTR.CAVITY>
0

>  <SCORE.RESTR.norm>
0

>  <SCORE.SYSTEM>
0

>  <SCORE.SYSTEM.CONST>
0

>  <SCORE.SYSTEM.DIHEDRAL>
0

>  <SCORE.SYSTEM.SOLV>
0

>  <SCORE.SYSTEM.norm>
0

>  <SCORE.heavy>
22

>  <SCORE.norm>
-0.644382

>  <RMSD>
7.026

$$$$
2fcx_lig
 OpenBabel11021811433D
libRbt.so/2013.1/901 2013/11/27
 22 23  0  0  0  0  0  0  0  0999 V2000
   26.0521    7.4049   17.8600 N   0  0  0  0  0  0  0  0  0  0  0  0
   24.3973   10.0774   14.0925 N   0  0  0  0  0  0  0  0  0  0  0  0
   24.8890   13.7002    9.9979 N   0  0  0  0  0  0  0  0  0  0  0  0
   28.7960    8.0083   13.8693 O   0  0  0  0  0  0  0  0  0  0  0  0
   27.8615    8.6478   14.7428 C   0  0  2  0  0  0  0  0  0  0  0  0
   27.9407    8.5924   10.7615 N   0  0  0  0  0  0  0  0  0  0  0  0
   28.6710    7.4321   16.6467 O   0  0  0  0  0  0  0  0  0  0  0  0
   27.4867    7.7041   15.8880 C   0  0  1  0  0  0  0  0  0  0  0  0
   27.0106   10.1250   13.0035 O   0  0  0  0  0  0  0  0  0  0  0  0
   26.4336    8.3444   16.7953 C   0  0  1  0  0  0  0  0  0  0  0  0
   25.5633   11.3370   11.6150 O   0  0  0  0  0  0  0  0  0  0  0  0
   25.1867    8.7234   15.9890 C   0  0  0  0  0  0  0  0  0  0  0  0
   28.2959   13.4002   10.2158 O   0  0  0  0  0  0  0  0  0  0  0  0
   25.5803    9.7034   14.8803 C   0  0  1  0  0  0  0  0  0  0  0  0
   29.0043   10.8163    9.2926 O   0  0  0  0  0  0  0  0  0  0  0  0
   26.6347    9.1053   13.9442 C   0  0  2  0  0  0  0  0  0  0  0  0
   26.2548   10.0853   11.7809 C   0  0  1  0  0  0  0  0  0  0  0  0
   26.4361   12.4768   11.4802 C   0  0  2  0  0  0  0  0  0  0  0  0
   25.6199   13.7545   11.2727 C   0  0  0  0  0  0  0  0  0  0  0  0
   27.3765   12.3058   10.2841 C   0  0  2  0  0  0  0  0  0  0  0  0
   28.1724   11.0088   10.4383 C   0  0  1  0  0  0  0  0  0  0  0  0
   27.1906    9.8439   10.5902 C   0  0  1  0  0  0  0  0  0  0  0  0
  5  4  1  6  0  0  0
  5  8  1  0  0  0  0
  5 16  1  0  0  0  0
  8  7  1  1  0  0  0
  8 10  1  0  0  0  0
 10  1  1  1  0  0  0
 10 12  1  0  0  0  0
 11 18  1  0  0  0  0
 12 14  1  0  0  0  0
 14  2  1  6  0  0  0
 14 16  1  0  0  0  0
 16  9  1  6  0  0  0
 17  9  1  1  0  0  0
 17 11  1  0  0  0  0
 17 22  1  0  0  0  0
 18 19  1  6  0  0  0
 18 20  1  0  0  0  0
 19  3  1  0  0  0  0
 20 13  1  1  0  0  0
 20 21  1  0  0  0  0
 21 15  1  6  0  0  0
 21 22  1  0  0  0  0
 22  6  1  1  0  0  0
M  END
>  <CHROM.1>
146.48278220,120.22842694,-64.89192231,26.89390837,10.12706936,12.95064176
1.58600072,-0.59598184,2.20726048

>  <Name>
2fcx_lig

>  <RI>
3.23342e+07

>  <Rbt.Current_Directory>
/home/itssahil/PROJECTS/Mol_Feturizer/New_Systems/rnas/2fcx

>  <Rbt.Executable>
rbdock ($Id: //depot/dev/client3/rdock/2013.1/src/exe/rbdock.cxx#4 $)

>  <Rbt.Library>
libRbt.so (2013.1, Build901 2013/11/27)

>  <Rbt.Parameter_File>
/export/apps/rDock/src/rDock_2013.1_src/data/scripts/dock_solv.prm

>  <Rbt.Receptor>
prm/pocket_docking_5.prm

>  <SCORE>
-10.5868

>  <SCORE.INTER>
-15.0567

>  <SCORE.INTER.CONST>
1

>  <SCORE.INTER.POLAR>
-2.51655

>  <SCORE.INTER.ROT>
3

>  <SCORE.INTER.SOLV>
14.1677

>  <SCORE.INTER.VDW>
-11.9719

>  <SCORE.INTER.norm>
-0.684398

>  <SCORE.INTRA>
4.45706

>  <SCORE.INTRA.DIHEDRAL>
6.66656

>  <SCORE.INTRA.DIHEDRAL.0>
4.88619

>  <SCORE.INTRA.POLAR>
0

>  <SCORE.INTRA.POLAR.0>
0

>  <SCORE.INTRA.REPUL>
0

>  <SCORE.INTRA.REPUL.0>
0

>  <SCORE.INTRA.SOLV>
3.07988

>  <SCORE.INTRA.SOLV.lig_0>
-73.8187

>  <SCORE.INTRA.VDW>
-0.416164

>  <SCORE.INTRA.VDW.0>
-1.32335

>  <SCORE.INTRA.norm>
0.202594

>  <SCORE.RESTR>
0.0128431

>  <SCORE.RESTR.CAVITY>
0.0128431

>  <SCORE.RESTR.norm>
0.000583775

>  <SCORE.SYSTEM>
0

>  <SCORE.SYSTEM.CONST>
0

>  <SCORE.SYSTEM.DIHEDRAL>
0

>  <SCORE.SYSTEM.SOLV>
0

>  <SCORE.SYSTEM.norm>
0

>  <SCORE.heavy>
22

>  <SCORE.norm>
-0.48122

>  <RMSD>
7.038

$$$$
2fcx_lig
 OpenBabel11021811433D
libRbt.so/2013.1/901 2013/11/27
 22 23  0  0  0  0  0  0  0  0999 V2000
   28.4183    7.2865   15.3182 N   0  0  0  0  0  0  0  0  0  0  0  0
   25.6695    9.0099   11.6374 N   0  0  0  0  0  0  0  0  0  0  0  0
   28.3713    8.3377    8.3370 N   0  0  0  0  0  0  0  0  0  0  0  0
   29.9289   11.1132   12.6927 O   0  0  0  0  0  0  0  0  0  0  0  0
   28.7816   10.4754   13.2605 C   0  0  2  0  0  0  0  0  0  0  0  0
   27.0820   14.1657   11.0511 N   0  0  0  0  0  0  0  0  0  0  0  0
   30.0465    9.6624   15.1306 O   0  0  0  0  0  0  0  0  0  0  0  0
   29.2099    9.2355   14.0490 C   0  0  1  0  0  0  0  0  0  0  0  0
   27.2658   11.3475   11.5655 O   0  0  0  0  0  0  0  0  0  0  0  0
   27.9894    8.4991   14.6059 C   0  0  1  0  0  0  0  0  0  0  0  0
   28.6025   11.0554    9.6630 O   0  0  0  0  0  0  0  0  0  0  0  0
   27.0348    8.1056   13.4736 C   0  0  0  0  0  0  0  0  0  0  0  0
   25.7327   11.3384    7.3466 O   0  0  0  0  0  0  0  0  0  0  0  0
   26.5846    9.3666   12.7308 C   0  0  1  0  0  0  0  0  0  0  0  0
   25.7896   13.9260    8.5003 O   0  0  0  0  0  0  0  0  0  0  0  0
   27.7748   10.1388   12.1537 C   0  0  2  0  0  0  0  0  0  0  0  0
   28.1971   11.9913   10.6789 C   0  0  1  0  0  0  0  0  0  0  0  0
   27.5261   10.6059    8.8154 C   0  0  2  0  0  0  0  0  0  0  0  0
   28.0521    9.6459    7.7460 C   0  0  0  0  0  0  0  0  0  0  0  0
   26.8541   11.7887    8.1128 C   0  0  2  0  0  0  0  0  0  0  0  0
   26.3606   12.7923    9.1563 C   0  0  1  0  0  0  0  0  0  0  0  0
   27.5446   13.2175   10.0289 C   0  0  1  0  0  0  0  0  0  0  0  0
  5  4  1  6  0  0  0
  5  8  1  0  0  0  0
  5 16  1  0  0  0  0
  8  7  1  1  0  0  0
  8 10  1  0  0  0  0
 10  1  1  6  0  0  0
 10 12  1  0  0  0  0
 11 18  1  0  0  0  0
 12 14  1  0  0  0  0
 14  2  1  6  0  0  0
 14 16  1  0  0  0  0
 16  9  1  1  0  0  0
 17  9  1  1  0  0  0
 17 11  1  0  0  0  0
 17 22  1  0  0  0  0
 18 19  1  6  0  0  0
 18 20  1  0  0  0  0
 19  3  1  0  0  0  0
 20 13  1  1  0  0  0
 20 21  1  0  0  0  0
 21 15  1  6  0  0  0
 21 22  1  0  0  0  0
 22  6  1  1  0  0  0
M  END
>  <CHROM.1>
75.50198979,55.72369116,73.83962015,27.68170348,10.61989430,11.16447486,0.49998177
1.26424323,3.13596583

>  <Name>
2fcx_lig

>  <RI>
0

>  <Rbt.Current_Directory>
/home/itssahil/PROJECTS/Mol_Feturizer/New_Systems/rnas/2fcx

>  <Rbt.Executable>
rbdock ($Id: //depot/dev/client3/rdock/2013.1/src/exe/rbdock.cxx#4 $)

>  <Rbt.Library>
libRbt.so (2013.1, Build901 2013/11/27)

>  <Rbt.Parameter_File>
/export/apps/rDock/src/rDock_2013.1_src/data/scripts/dock_solv.prm

>  <Rbt.Receptor>
prm/pocket_docking_6.prm

>  <SCORE>
-15.2719

>  <SCORE.INTER>
-13.615

>  <SCORE.INTER.CONST>
1

>  <SCORE.INTER.POLAR>
-2.19633

>  <SCORE.INTER.ROT>
3

>  <SCORE.INTER.SOLV>
12.6206

>  <SCORE.INTER.VDW>
-11.5625

>  <SCORE.INTER.norm>
-0.618866

>  <SCORE.INTRA>
-1.66197

>  <SCORE.INTRA.DIHEDRAL>
-3.01083

>  <SCORE.INTRA.DIHEDRAL.0>
4.88619

>  <SCORE.INTRA.POLAR>
0

>  <SCORE.INTRA.POLAR.0>
0

>  <SCORE.INTRA.REPUL>
0

>  <SCORE.INTRA.REPUL.0>
0

>  <SCORE.INTRA.SOLV>
-0.441783

>  <SCORE.INTRA.SOLV.lig_0>
-73.8187

>  <SCORE.INTRA.VDW>
0.0643393

>  <SCORE.INTRA.VDW.0>
-1.32335

>  <SCORE.INTRA.norm>
-0.075544

>  <SCORE.RESTR>
0.00508977

>  <SCORE.RESTR.CAVITY>
0.00508977

>  <SCORE.RESTR.norm>
0.000231353

>  <SCORE.SYSTEM>
0

>  <SCORE.SYSTEM.CONST>
0

>  <SCORE.SYSTEM.DIHEDRAL>
0

>  <SCORE.SYSTEM.SOLV>
0

>  <SCORE.SYSTEM.norm>
0

>  <SCORE.heavy>
22

>  <SCORE.norm>
-0.694178

>  <RMSD>
7.073

$$$$
2fcx_lig
 OpenBabel11021811433D
libRbt.so/2013.1/901 2013/11/27
 22 23  0  0  0  0  0  0  0  0999 V2000
   31.7970   13.8651   14.5817 N   0  0  0  0  0  0  0  0  0  0  0  0
   29.3109   14.4833   10.3971 N   0  0  0  0  0  0  0  0  0  0  0  0
   23.9808   12.1278   10.1110 N   0  0  0  0  0  0  0  0  0  0  0  0
   29.2950   10.1584   12.6275 O   0  0  0  0  0  0  0  0  0  0  0  0
   30.0996   11.3020   12.3269 C   0  0  2  0  0  0  0  0  0  0  0  0
   29.0431    9.3665    8.4600 N   0  0  0  0  0  0  0  0  0  0  0  0
   31.4087   11.0172   14.3177 O   0  0  0  0  0  0  0  0  0  0  0  0
   30.5806   11.9576   13.6235 C   0  0  1  0  0  0  0  0  0  0  0  0
   29.0374   11.6744   10.1672 O   0  0  0  0  0  0  0  0  0  0  0  0
   31.3853   13.2245   13.3240 C   0  0  1  0  0  0  0  0  0  0  0  0
   26.7295   11.4548   10.5092 O   0  0  0  0  0  0  0  0  0  0  0  0
   30.5478   14.2140   12.5068 C   0  0  0  0  0  0  0  0  0  0  0  0
   25.8936   12.8268    7.1775 O   0  0  0  0  0  0  0  0  0  0  0  0
   30.1189   13.5504   11.1951 C   0  0  1  0  0  0  0  0  0  0  0  0
   27.2632   10.4448    6.4844 O   0  0  0  0  0  0  0  0  0  0  0  0
   29.3082   12.2752   11.4446 C   0  0  2  0  0  0  0  0  0  0  0  0
   27.9405   10.7448   10.1907 C   0  0  1  0  0  0  0  0  0  0  0  0
   26.3580   12.4496    9.5339 C   0  0  2  0  0  0  0  0  0  0  0  0
   25.0451   13.1268    9.9332 C   0  0  0  0  0  0  0  0  0  0  0  0
   26.1732   11.8169    8.1519 C   0  0  2  0  0  0  0  0  0  0  0  0
   27.4553   11.0885    7.7455 C   0  0  1  0  0  0  0  0  0  0  0  0
   27.8007   10.0600    8.8256 C   0  0  1  0  0  0  0  0  0  0  0  0
  5  4  1  1  0  0  0
  5  8  1  0  0  0  0
  5 16  1  0  0  0  0
  8  7  1  6  0  0  0
  8 10  1  0  0  0  0
 10  1  1  1  0  0  0
 10 12  1  0  0  0  0
 11 18  1  0  0  0  0
 12 14  1  0  0  0  0
 14  2  1  1  0  0  0
 14 16  1  0  0  0  0
 16  9  1  6  0  0  0
 17  9  1  6  0  0  0
 17 11  1  0  0  0  0
 17 22  1  0  0  0  0
 18 19  1  1  0  0  0
 18 20  1  0  0  0  0
 19  3  1  0  0  0  0
 20 13  1  6  0  0  0
 20 21  1  0  0  0  0
 21 15  1  6  0  0  0
 21 22  1  0  0  0  0
 22  6  1  6  0  0  0
M  END
>  <CHROM.1>
79.08288199,64.37625513,-56.25297421,28.46471858,11.94188833,10.60369606
0.56399654,-0.66932450,0.59971049

>  <Name>
2fcx_lig

>  <RI>
4.08374e+07

>  <Rbt.Current_Directory>
/home/itssahil/PROJECTS/Mol_Feturizer/New_Systems/rnas/2fcx

>  <Rbt.Executable>
rbdock ($Id: //depot/dev/client3/rdock/2013.1/src/exe/rbdock.cxx#4 $)

>  <Rbt.Library>
libRbt.so (2013.1, Build901 2013/11/27)

>  <Rbt.Parameter_File>
/export/apps/rDock/src/rDock_2013.1_src/data/scripts/dock_solv.prm

>  <Rbt.Receptor>
prm/pocket_docking_7.prm

>  <SCORE>
-12.7483

>  <SCORE.INTER>
-11.6076

>  <SCORE.INTER.CONST>
1

>  <SCORE.INTER.POLAR>
-1.60296

>  <SCORE.INTER.ROT>
3

>  <SCORE.INTER.SOLV>
14.2953

>  <SCORE.INTER.VDW>
-12.7603

>  <SCORE.INTER.norm>
-0.527619

>  <SCORE.INTRA>
-1.14068

>  <SCORE.INTRA.DIHEDRAL>
-3.0827

>  <SCORE.INTRA.DIHEDRAL.0>
4.88619

>  <SCORE.INTRA.POLAR>
0

>  <SCORE.INTRA.POLAR.0>
0

>  <SCORE.INTRA.REPUL>
0

>  <SCORE.INTRA.REPUL.0>
0

>  <SCORE.INTRA.SOLV>
1.0002

>  <SCORE.INTRA.SOLV.lig_0>
-73.8187

>  <SCORE.INTRA.VDW>
-0.0994342

>  <SCORE.INTRA.VDW.0>
-1.32335

>  <SCORE.INTRA.norm>
-0.0518491

>  <SCORE.RESTR>
0

>  <SCORE.RESTR.CAVITY>
0

>  <SCORE.RESTR.norm>
0

>  <SCORE.SYSTEM>
0

>  <SCORE.SYSTEM.CONST>
0

>  <SCORE.SYSTEM.DIHEDRAL>
0

>  <SCORE.SYSTEM.SOLV>
0

>  <SCORE.SYSTEM.norm>
0

>  <SCORE.heavy>
22

>  <SCORE.norm>
-0.579468

>  <RMSD>
7.079

$$$$
2fcx_lig
 OpenBabel11021811433D
libRbt.so/2013.1/901 2013/11/27
 22 23  0  0  0  0  0  0  0  0999 V2000
   30.5613   12.9668   15.0701 N   0  0  0  0  0  0  0  0  0  0  0  0
   28.9912   13.1955   10.4272 N   0  0  0  0  0  0  0  0  0  0  0  0
   25.8335   13.7050    8.8559 N   0  0  0  0  0  0  0  0  0  0  0  0
   28.1083    9.2316   13.1081 O   0  0  0  0  0  0  0  0  0  0  0  0
   29.0684   10.2575   12.8416 C   0  0  2  0  0  0  0  0  0  0  0  0
   28.0966    7.6732    9.7106 N   0  0  0  0  0  0  0  0  0  0  0  0
   29.9396   10.1482   15.0748 O   0  0  0  0  0  0  0  0  0  0  0  0
   29.3595   11.0457   14.1209 C   0  0  1  0  0  0  0  0  0  0  0  0
   28.4792   10.4112   10.4836 O   0  0  0  0  0  0  0  0  0  0  0  0
   30.3322   12.1935   13.8408 C   0  0  1  0  0  0  0  0  0  0  0  0
   26.3535   10.9706    9.6711 O   0  0  0  0  0  0  0  0  0  0  0  0
   29.7710   13.1233   12.7596 C   0  0  0  0  0  0  0  0  0  0  0  0
   27.4532   10.8946    6.1403 O   0  0  0  0  0  0  0  0  0  0  0  0
   29.5329   12.3213   11.4771 C   0  0  1  0  0  0  0  0  0  0  0  0
   27.8018    8.1877    6.9030 O   0  0  0  0  0  0  0  0  0  0  0  0
   28.5630   11.1588   11.7084 C   0  0  2  0  0  0  0  0  0  0  0  0
   27.1612    9.9066   10.2076 C   0  0  1  0  0  0  0  0  0  0  0  0
   26.8277   11.4907    8.4127 C   0  0  2  0  0  0  0  0  0  0  0  0
   25.8926   12.5885    7.9007 C   0  0  0  0  0  0  0  0  0  0  0  0
   26.8969   10.3848    7.3561 C   0  0  2  0  0  0  0  0  0  0  0  0
   27.7869    9.2478    7.8609 C   0  0  1  0  0  0  0  0  0  0  0  0
   27.2388    8.7518    9.2016 C   0  0  1  0  0  0  0  0  0  0  0  0
  5  4  1  1  0  0  0
  5  8  1  0  0  0  0
  5 16  1  0  0  0  0
  8  7  1  1  0  0  0
  8 10  1  0  0  0  0
 10  1  1  1  0  0  0
 10 12  1  0  0  0  0
 11 18  1  0  0  0  0
 12 14  1  0  0  0  0
 14  2  1  6  0  0  0
 14 16  1  0  0  0  0
 16  9  1  6  0  0  0
 17  9  1  6  0  0  0
 17 11  1  0  0  0  0
 17 22  1  0  0  0  0
 18 19  1  6  0  0  0
 18 20  1  0  0  0  0
 19  3  1  0  0  0  0
 20 13  1  6  0  0  0
 20 21  1  0  0  0  0
 21 15  1  6  0  0  0
 21 22  1  0  0  0  0
 22  6  1  1  0  0  0
M  END
>  <CHROM.1>
96.70795802,79.05513632,60.68809800,28.17482577,10.87416576,10.57939110,0.30326548
-1.14337906,0.13699922

>  <Name>
2fcx_lig

>  <RI>
0

>  <Rbt.Current_Directory>
/home/itssahil/PROJECTS/Mol_Feturizer/New_Systems/rnas/2fcx

>  <Rbt.Executable>
rbdock ($Id: //depot/dev/client3/rdock/2013.1/src/exe/rbdock.cxx#4 $)

>  <Rbt.Library>
libRbt.so (2013.1, Build901 2013/11/27)

>  <Rbt.Parameter_File>
/export/apps/rDock/src/rDock_2013.1_src/data/scripts/dock_solv.prm

>  <Rbt.Receptor>
prm/pocket_docking_6.prm

>  <SCORE>
-8.62093

>  <SCORE.INTER>
-9.51177

>  <SCORE.INTER.CONST>
1

>  <SCORE.INTER.POLAR>
-1.42162

>  <SCORE.INTER.ROT>
3

>  <SCORE.INTER.SOLV>
11.6438

>  <SCORE.INTER.VDW>
-11.0837

>  <SCORE.INTER.norm>
-0.432353

>  <SCORE.INTRA>
0.888413

>  <SCORE.INTRA.DIHEDRAL>
1.60915

>  <SCORE.INTRA.DIHEDRAL.0>
4.88619

>  <SCORE.INTRA.POLAR>
0

>  <SCORE.INTRA.POLAR.0>
0

>  <SCORE.INTRA.REPUL>
0

>  <SCORE.INTRA.REPUL.0>
0

>  <SCORE.INTRA.SOLV>
1.82774

>  <SCORE.INTRA.SOLV.lig_0>
-73.8187

>  <SCORE.INTRA.VDW>
-0.830031

>  <SCORE.INTRA.VDW.0>
-1.32335

>  <SCORE.INTRA.norm>
0.0403824

>  <SCORE.RESTR>
0.0024252

>  <SCORE.RESTR.CAVITY>
0.0024252

>  <SCORE.RESTR.norm>
0.000110236

>  <SCORE.SYSTEM>
0

>  <SCORE.SYSTEM.CONST>
0

>  <SCORE.SYSTEM.DIHEDRAL>
0

>  <SCORE.SYSTEM.SOLV>
0

>  <SCORE.SYSTEM.norm>
0

>  <SCORE.heavy>
22

>  <SCORE.norm>
-0.39186

>  <RMSD>
7.098

$$$$
2fcx_lig
 OpenBabel11021811433D
libRbt.so/2013.1/901 2013/11/27
 22 23  0  0  0  0  0  0  0  0999 V2000
   28.2666    7.2311   15.2981 N   0  0  0  0  0  0  0  0  0  0  0  0
   25.6063    9.0549   11.6007 N   0  0  0  0  0  0  0  0  0  0  0  0
   28.3890    8.3688    8.3356 N   0  0  0  0  0  0  0  0  0  0  0  0
   29.9024   11.0434   12.7272 O   0  0  0  0  0  0  0  0  0  0  0  0
   28.7330   10.4287   13.2750 C   0  0  2  0  0  0  0  0  0  0  0  0
   27.1536   14.1802   11.0825 N   0  0  0  0  0  0  0  0  0  0  0  0
   29.9545    9.5680   15.1525 O   0  0  0  0  0  0  0  0  0  0  0  0
   29.1211    9.1716   14.0569 C   0  0  1  0  0  0  0  0  0  0  0  0
   27.2599   11.3532   11.5701 O   0  0  0  0  0  0  0  0  0  0  0  0
   27.8762    8.4603   14.5921 C   0  0  1  0  0  0  0  0  0  0  0  0
   28.6105   11.0460    9.6798 O   0  0  0  0  0  0  0  0  0  0  0  0
   26.9263    8.1006   13.4447 C   0  0  0  0  0  0  0  0  0  0  0  0
   25.7756   11.4251    7.3344 O   0  0  0  0  0  0  0  0  0  0  0  0
   26.5163    9.3791   12.7083 C   0  0  1  0  0  0  0  0  0  0  0  0
   25.8849   13.9988    8.5151 O   0  0  0  0  0  0  0  0  0  0  0  0
   27.7320   10.1271   12.1531 C   0  0  2  0  0  0  0  0  0  0  0  0
   28.2174   11.9818   10.7007 C   0  0  1  0  0  0  0  0  0  0  0  0
   27.5329   10.6325    8.8156 C   0  0  2  0  0  0  0  0  0  0  0  0
   28.0465    9.6701    7.7425 C   0  0  0  0  0  0  0  0  0  0  0  0
   26.8992   11.8390    8.1177 C   0  0  2  0  0  0  0  0  0  0  0  0
   26.4194   12.8445    9.1658 C   0  0  1  0  0  0  0  0  0  0  0  0
   27.6037   13.2306   10.0559 C   0  0  1  0  0  0  0  0  0  0  0  0
  5  4  1  6  0  0  0
  5  8  1  0  0  0  0
  5 16  1  0  0  0  0
  8  7  1  1  0  0  0
  8 10  1  0  0  0  0
 10  1  1  6  0  0  0
 10 12  1  0  0  0  0
 11 18  1  0  0  0  0
 12 14  1  0  0  0  0
 14  2  1  6  0  0  0
 14 16  1  0  0  0  0
 16  9  1  1  0  0  0
 17  9  1  1  0  0  0
 17 11  1  0  0  0  0
 17 22  1  0  0  0  0
 18 19  1  6  0  0  0
 18 20  1  0  0  0  0
 19  3  1  0  0  0  0
 20 13  1  1  0  0  0
 20 21  1  0  0  0  0
 21 15  1  6  0  0  0
 21 22  1  0  0  0  0
 22  6  1  1  0  0  0
M  END
>  <CHROM.1>
75.51903081,55.80302750,71.02556851,27.66480300,10.62124605,11.16799481,0.57182917
1.27808710,3.07862581

>  <Name>
2fcx_lig

>  <RI>
0

>  <Rbt.Current_Directory>
/home/itssahil/PROJECTS/Mol_Feturizer/New_Systems/rnas/2fcx

>  <Rbt.Executable>
rbdock ($Id: //depot/dev/client3/rdock/2013.1/src/exe/rbdock.cxx#4 $)

>  <Rbt.Library>
libRbt.so (2013.1, Build901 2013/11/27)

>  <Rbt.Parameter_File>
/export/apps/rDock/src/rDock_2013.1_src/data/scripts/dock_solv.prm

>  <Rbt.Receptor>
prm/pocket_docking_6.prm

>  <SCORE>
-15.1722

>  <SCORE.INTER>
-13.3848

>  <SCORE.INTER.CONST>
1

>  <SCORE.INTER.POLAR>
-2.18585

>  <SCORE.INTER.ROT>
3

>  <SCORE.INTER.SOLV>
13.0434

>  <SCORE.INTER.VDW>
-11.5848

>  <SCORE.INTER.norm>
-0.6084

>  <SCORE.INTRA>
-1.78738

>  <SCORE.INTRA.DIHEDRAL>
-3.24546

>  <SCORE.INTRA.DIHEDRAL.0>
4.88619

>  <SCORE.INTRA.POLAR>
0

>  <SCORE.INTRA.POLAR.0>
0

>  <SCORE.INTRA.REPUL>
0

>  <SCORE.INTRA.REPUL.0>
0

>  <SCORE.INTRA.SOLV>
-0.458297

>  <SCORE.INTRA.SOLV.lig_0>
-73.8187

>  <SCORE.INTRA.VDW>
0.064503

>  <SCORE.INTRA.VDW.0>
-1.32335

>  <SCORE.INTRA.norm>
-0.0812444

>  <SCORE.RESTR>
0

>  <SCORE.RESTR.CAVITY>
0

>  <SCORE.RESTR.norm>
0

>  <SCORE.SYSTEM>
0

>  <SCORE.SYSTEM.CONST>
0

>  <SCORE.SYSTEM.DIHEDRAL>
0

>  <SCORE.SYSTEM.SOLV>
0

>  <SCORE.SYSTEM.norm>
0

>  <SCORE.heavy>
22

>  <SCORE.norm>
-0.689645

>  <RMSD>
7.099

$$$$
2fcx_lig
 OpenBabel11021811433D
libRbt.so/2013.1/901 2013/11/27
 22 23  0  0  0  0  0  0  0  0999 V2000
   25.0629    8.5863    5.8323 N   0  0  0  0  0  0  0  0  0  0  0  0
   29.1006    9.4389    8.4866 N   0  0  0  0  0  0  0  0  0  0  0  0
   27.3575    8.6412   12.7036 N   0  0  0  0  0  0  0  0  0  0  0  0
   25.0114   11.9123    9.4035 O   0  0  0  0  0  0  0  0  0  0  0  0
   25.8077   11.3385    8.3632 C   0  0  2  0  0  0  0  0  0  0  0  0
   28.4765   14.5156   10.2287 N   0  0  0  0  0  0  0  0  0  0  0  0
   23.8860   10.9603    6.9769 O   0  0  0  0  0  0  0  0  0  0  0  0
   24.9923   10.2943    7.5969 C   0  0  1  0  0  0  0  0  0  0  0  0
   27.9085   11.7958    9.5071 O   0  0  0  0  0  0  0  0  0  0  0  0
   25.8492    9.6182    6.5241 C   0  0  1  0  0  0  0  0  0  0  0  0
   27.2772   11.3098   11.7110 O   0  0  0  0  0  0  0  0  0  0  0  0
   27.0868    8.9695    7.1532 C   0  0  0  0  0  0  0  0  0  0  0  0
   30.7750   11.1872   12.9076 O   0  0  0  0  0  0  0  0  0  0  0  0
   27.9090   10.0421    7.8731 C   0  0  1  0  0  0  0  0  0  0  0  0
   30.5338   13.9023   12.1328 O   0  0  0  0  0  0  0  0  0  0  0  0
   27.0915   10.7480    8.9589 C   0  0  2  0  0  0  0  0  0  0  0  0
   27.3864   12.3534   10.7255 C   0  0  1  0  0  0  0  0  0  0  0  0
   28.5382   10.7159   12.0798 C   0  0  2  0  0  0  0  0  0  0  0  0
   28.3322    9.6459   13.1542 C   0  0  0  0  0  0  0  0  0  0  0  0
   29.4993   11.7731   12.6303 C   0  0  2  0  0  0  0  0  0  0  0  0
   29.6871   12.8842   11.5960 C   0  0  1  0  0  0  0  0  0  0  0  0
   28.3147   13.4610   11.2386 C   0  0  1  0  0  0  0  0  0  0  0  0
  5  4  1  1  0  0  0
  5  8  1  0  0  0  0
  5 16  1  0  0  0  0
  8  7  1  6  0  0  0
  8 10  1  0  0  0  0
 10  1  1  1  0  0  0
 10 12  1  0  0  0  0
 11 18  1  0  0  0  0
 12 14  1  0  0  0  0
 14  2  1  1  0  0  0
 14 16  1  0  0  0  0
 16  9  1  6  0  0  0
 17  9  1  6  0  0  0
 17 11  1  0  0  0  0
 17 22  1  0  0  0  0
 18 19  1  1  0  0  0
 18 20  1  0  0  0  0
 19  3  1  0  0  0  0
 20 13  1  6  0  0  0
 20 21  1  0  0  0  0
 21 15  1  1  0  0  0
 21 22  1  0  0  0  0
 22  6  1  6  0  0  0
M  END
>  <CHROM.1>
72.33699722,59.41219963,55.25518751,27.54219701,11.11657046,9.92461331,-2.87147476
-0.92935978,-0.06574053

>  <Name>
2fcx_lig

>  <RI>
1.15031e+07

>  <Rbt.Current_Directory>
/home/itssahil/PROJECTS/Mol_Feturizer/New_Systems/rnas/2fcx

>  <Rbt.Executable>
rbdock ($Id: //depot/dev/client3/rdock/2013.1/src/exe/rbdock.cxx#4 $)

>  <Rbt.Library>
libRbt.so (2013.1, Build901 2013/11/27)

>  <Rbt.Parameter_File>
/export/apps/rDock/src/rDock_2013.1_src/data/scripts/dock_solv.prm

>  <Rbt.Receptor>
prm/pocket_docking_8.prm

>  <SCORE>
-9.6621

>  <SCORE.INTER>
-7.57924

>  <SCORE.INTER.CONST>
1

>  <SCORE.INTER.POLAR>
-1.54087

>  <SCORE.INTER.ROT>
3

>  <SCORE.INTER.SOLV>
13.116

>  <SCORE.INTER.VDW>
-9.88861

>  <SCORE.INTER.norm>
-0.344511

>  <SCORE.INTRA>
-2.08286

>  <SCORE.INTRA.DIHEDRAL>
-4.06709

>  <SCORE.INTRA.DIHEDRAL.0>
4.88619

>  <SCORE.INTRA.POLAR>
0

>  <SCORE.INTRA.POLAR.0>
0

>  <SCORE.INTRA.REPUL>
0

>  <SCORE.INTRA.REPUL.0>
0

>  <SCORE.INTRA.SOLV>
-0.629931

>  <SCORE.INTRA.SOLV.lig_0>
-73.8187

>  <SCORE.INTRA.VDW>
0.265655

>  <SCORE.INTRA.VDW.0>
-1.32335

>  <SCORE.INTRA.norm>
-0.0946753

>  <SCORE.RESTR>
0

>  <SCORE.RESTR.CAVITY>
0

>  <SCORE.RESTR.norm>
0

>  <SCORE.SYSTEM>
0

>  <SCORE.SYSTEM.CONST>
0

>  <SCORE.SYSTEM.DIHEDRAL>
0

>  <SCORE.SYSTEM.SOLV>
0

>  <SCORE.SYSTEM.norm>
0

>  <SCORE.heavy>
22

>  <SCORE.norm>
-0.439186

>  <RMSD>
7.116

$$$$
2fcx_lig
 OpenBabel11021811433D
libRbt.so/2013.1/901 2013/11/27
 22 23  0  0  0  0  0  0  0  0999 V2000
   28.4176    7.3805   16.6033 N   0  0  0  0  0  0  0  0  0  0  0  0
   24.9235    8.3358   13.2938 N   0  0  0  0  0  0  0  0  0  0  0  0
   23.8222   12.7795    8.6272 N   0  0  0  0  0  0  0  0  0  0  0  0
   29.3193   10.3771   12.8581 O   0  0  0  0  0  0  0  0  0  0  0  0
   28.3252    9.9610   13.7983 C   0  0  2  0  0  0  0  0  0  0  0  0
   27.9753    8.8684   10.4792 N   0  0  0  0  0  0  0  0  0  0  0  0
   29.9723    9.5440   15.4928 O   0  0  0  0  0  0  0  0  0  0  0  0
   28.9137    8.9216   14.7552 C   0  0  1  0  0  0  0  0  0  0  0  0
   26.4728   10.4917   12.3090 O   0  0  0  0  0  0  0  0  0  0  0  0
   27.8454    8.4116   15.7252 C   0  0  1  0  0  0  0  0  0  0  0  0
   24.9580   11.0574   10.6127 O   0  0  0  0  0  0  0  0  0  0  0  0
   26.6606    7.8163   14.9569 C   0  0  0  0  0  0  0  0  0  0  0  0
   27.2962   13.4500    9.0348 O   0  0  0  0  0  0  0  0  0  0  0  0
   26.0610    8.8884   14.0427 C   0  0  1  0  0  0  0  0  0  0  0  0
   28.6704   10.9966    8.6843 O   0  0  0  0  0  0  0  0  0  0  0  0
   27.0954    9.4301   13.0516 C   0  0  2  0  0  0  0  0  0  0  0  0
   25.8905   10.0593   11.0673 C   0  0  1  0  0  0  0  0  0  0  0  0
   25.5605   12.3343   10.3206 C   0  0  2  0  0  0  0  0  0  0  0  0
   24.5063   13.3198    9.8115 C   0  0  0  0  0  0  0  0  0  0  0  0
   26.6459   12.1936    9.2498 C   0  0  2  0  0  0  0  0  0  0  0  0
   27.6910   11.1756    9.7091 C   0  0  1  0  0  0  0  0  0  0  0  0
   26.9867    9.8511   10.0152 C   0  0  1  0  0  0  0  0  0  0  0  0
  5  4  1  6  0  0  0
  5  8  1  0  0  0  0
  5 16  1  0  0  0  0
  8  7  1  1  0  0  0
  8 10  1  0  0  0  0
 10  1  1  1  0  0  0
 10 12  1  0  0  0  0
 11 18  1  0  0  0  0
 12 14  1  0  0  0  0
 14  2  1  6  0  0  0
 14 16  1  0  0  0  0
 16  9  1  1  0  0  0
 17  9  1  1  0  0  0
 17 11  1  0  0  0  0
 17 22  1  0  0  0  0
 18 19  1  6  0  0  0
 18 20  1  0  0  0  0
 19  3  1  0  0  0  0
 20 13  1  1  0  0  0
 20 21  1  0  0  0  0
 21 15  1  6  0  0  0
 21 22  1  0  0  0  0
 22  6  1  1  0  0  0
M  END
>  <CHROM.1>
145.79934136,162.27187581,-56.83746718,27.02713548,10.28894536,11.99769261
1.26180944,0.02313272,2.14345505

>  <Name>
2fcx_lig

>  <RI>
4.08374e+07

>  <Rbt.Current_Directory>
/home/itssahil/PROJECTS/Mol_Feturizer/New_Systems/rnas/2fcx

>  <Rbt.Executable>
rbdock ($Id: //depot/dev/client3/rdock/2013.1/src/exe/rbdock.cxx#4 $)

>  <Rbt.Library>
libRbt.so (2013.1, Build901 2013/11/27)

>  <Rbt.Parameter_File>
/export/apps/rDock/src/rDock_2013.1_src/data/scripts/dock_solv.prm

>  <Rbt.Receptor>
prm/pocket_docking_7.prm

>  <SCORE>
-8.87228

>  <SCORE.INTER>
-11.3215

>  <SCORE.INTER.CONST>
1

>  <SCORE.INTER.POLAR>
-2.138

>  <SCORE.INTER.ROT>
3

>  <SCORE.INTER.SOLV>
10.4233

>  <SCORE.INTER.VDW>
-9.49545

>  <SCORE.INTER.norm>
-0.514615

>  <SCORE.INTRA>
2.37926

>  <SCORE.INTRA.DIHEDRAL>
0.983825

>  <SCORE.INTRA.DIHEDRAL.0>
4.88619

>  <SCORE.INTRA.POLAR>
0

>  <SCORE.INTRA.POLAR.0>
0

>  <SCORE.INTRA.REPUL>
0

>  <SCORE.INTRA.REPUL.0>
0

>  <SCORE.INTRA.SOLV>
3.96857

>  <SCORE.INTRA.SOLV.lig_0>
-73.8187

>  <SCORE.INTRA.VDW>
-0.0969317

>  <SCORE.INTRA.VDW.0>
-1.32335

>  <SCORE.INTRA.norm>
0.108148

>  <SCORE.RESTR>
0.0699815

>  <SCORE.RESTR.CAVITY>
0.0699815

>  <SCORE.RESTR.norm>
0.00318098

>  <SCORE.SYSTEM>
0

>  <SCORE.SYSTEM.CONST>
0

>  <SCORE.SYSTEM.DIHEDRAL>
0

>  <SCORE.SYSTEM.SOLV>
0

>  <SCORE.SYSTEM.norm>
0

>  <SCORE.heavy>
22

>  <SCORE.norm>
-0.403286

>  <RMSD>
7.119

$$$$
2fcx_lig
 OpenBabel11021811433D
libRbt.so/2013.1/901 2013/11/27
 22 23  0  0  0  0  0  0  0  0999 V2000
   28.2256   11.5306   14.2902 N   0  0  0  0  0  0  0  0  0  0  0  0
   26.1147    8.0014   11.6138 N   0  0  0  0  0  0  0  0  0  0  0  0
   29.0058    5.4218    9.8287 N   0  0  0  0  0  0  0  0  0  0  0  0
   29.0746   11.2299    9.4936 O   0  0  0  0  0  0  0  0  0  0  0  0
   28.0813   11.0639   10.5091 C   0  0  2  0  0  0  0  0  0  0  0  0
   26.1704   10.3747    6.6494 N   0  0  0  0  0  0  0  0  0  0  0  0
   29.0138   12.8316   11.8372 O   0  0  0  0  0  0  0  0  0  0  0  0
   28.6609   11.4438   11.8737 C   0  0  1  0  0  0  0  0  0  0  0  0
   26.8560    9.3759    9.2519 O   0  0  0  0  0  0  0  0  0  0  0  0
   27.6346   11.2058   12.9838 C   0  0  1  0  0  0  0  0  0  0  0  0
   28.4270    7.9133    8.3114 O   0  0  0  0  0  0  0  0  0  0  0  0
   27.1764    9.7435   12.9891 C   0  0  0  0  0  0  0  0  0  0  0  0
   25.8341    5.5581    7.1236 O   0  0  0  0  0  0  0  0  0  0  0  0
   26.5584    9.4024   11.6302 C   0  0  1  0  0  0  0  0  0  0  0  0
   25.2437    7.8712    5.5969 O   0  0  0  0  0  0  0  0  0  0  0  0
   27.5509    9.6252   10.4852 C   0  0  2  0  0  0  0  0  0  0  0  0
   27.7323    9.1614    8.1321 C   0  0  1  0  0  0  0  0  0  0  0  0
   27.5634    6.7591    8.3392 C   0  0  2  0  0  0  0  0  0  0  0  0
   28.3862    5.4785    8.4963 C   0  0  0  0  0  0  0  0  0  0  0  0
   26.7506    6.6543    7.0459 C   0  0  2  0  0  0  0  0  0  0  0  0
   25.9535    7.9426    6.8349 C   0  0  1  0  0  0  0  0  0  0  0  0
   26.9241    9.1266    6.8293 C   0  0  1  0  0  0  0  0  0  0  0  0
  5  4  1  6  0  0  0
  5  8  1  0  0  0  0
  5 16  1  0  0  0  0
  8  7  1  6  0  0  0
  8 10  1  0  0  0  0
 10  1  1  1  0  0  0
 10 12  1  0  0  0  0
 11 18  1  0  0  0  0
 12 14  1  0  0  0  0
 14  2  1  1  0  0  0
 14 16  1  0  0  0  0
 16  9  1  6  0  0  0
 17  9  1  1  0  0  0
 17 11  1  0  0  0  0
 17 22  1  0  0  0  0
 18 19  1  6  0  0  0
 18 20  1  0  0  0  0
 19  3  1  0  0  0  0
 20 13  1  1  0  0  0
 20 21  1  0  0  0  0
 21 15  1  6  0  0  0
 21 22  1  0  0  0  0
 22  6  1  1  0  0  0
M  END
>  <CHROM.1>
76.86060282,68.31043696,68.09563036,27.40848491,8.98438528,9.51835795,-0.59706683
1.31137522,3.07666245

>  <Name>
2fcx_lig

>  <RI>
1.15031e+07

>  <Rbt.Current_Directory>
/home/itssahil/PROJECTS/Mol_Feturizer/New_Systems/rnas/2fcx

>  <Rbt.Executable>
rbdock ($Id: //depot/dev/client3/rdock/2013.1/src/exe/rbdock.cxx#4 $)

>  <Rbt.Library>
libRbt.so (2013.1, Build901 2013/11/27)

>  <Rbt.Parameter_File>
/export/apps/rDock/src/rDock_2013.1_src/data/scripts/dock_solv.prm

>  <Rbt.Receptor>
prm/pocket_docking_8.prm

>  <SCORE>
-14.444

>  <SCORE.INTER>
-12.6911

>  <SCORE.INTER.CONST>
1

>  <SCORE.INTER.POLAR>
-2.81074

>  <SCORE.INTER.ROT>
3

>  <SCORE.INTER.SOLV>
12.4094

>  <SCORE.INTER.VDW>
-8.82806

>  <SCORE.INTER.norm>
-0.576869

>  <SCORE.INTRA>
-1.75671

>  <SCORE.INTRA.DIHEDRAL>
-2.99943

>  <SCORE.INTRA.DIHEDRAL.0>
4.88619

>  <SCORE.INTRA.POLAR>
0

>  <SCORE.INTRA.POLAR.0>
0

>  <SCORE.INTRA.REPUL>
0

>  <SCORE.INTRA.REPUL.0>
0

>  <SCORE.INTRA.SOLV>
-0.295469

>  <SCORE.INTRA.SOLV.lig_0>
-73.8187

>  <SCORE.INTRA.VDW>
-0.109262

>  <SCORE.INTRA.VDW.0>
-1.32335

>  <SCORE.INTRA.norm>
-0.0798504

>  <SCORE.RESTR>
0.00384441

>  <SCORE.RESTR.CAVITY>
0.00384441

>  <SCORE.RESTR.norm>
0.000174746

>  <SCORE.SYSTEM>
0

>  <SCORE.SYSTEM.CONST>
0

>  <SCORE.SYSTEM.DIHEDRAL>
0

>  <SCORE.SYSTEM.SOLV>
0

>  <SCORE.SYSTEM.norm>
0

>  <SCORE.heavy>
22

>  <SCORE.norm>
-0.656544

>  <RMSD>
7.127

$$$$
2fcx_lig
 OpenBabel11021811433D
libRbt.so/2013.1/901 2013/11/27
 22 23  0  0  0  0  0  0  0  0999 V2000
   27.6649   14.0789    9.3845 N   0  0  0  0  0  0  0  0  0  0  0  0
   27.7641   16.7226   13.5168 N   0  0  0  0  0  0  0  0  0  0  0  0
   31.3265   18.9787   15.8752 N   0  0  0  0  0  0  0  0  0  0  0  0
   30.3963   12.6448   13.1662 O   0  0  0  0  0  0  0  0  0  0  0  0
   29.1590   13.2585   12.7947 C   0  0  2  0  0  0  0  0  0  0  0  0
   29.1225   12.9592   17.2330 N   0  0  0  0  0  0  0  0  0  0  0  0
   29.0042   11.9448   10.7926 O   0  0  0  0  0  0  0  0  0  0  0  0
   29.0312   13.2951   11.2700 C   0  0  1  0  0  0  0  0  0  0  0  0
   29.0072   14.5560   14.8501 O   0  0  0  0  0  0  0  0  0  0  0  0
   27.7455   14.0118   10.8510 C   0  0  1  0  0  0  0  0  0  0  0  0
   31.1935   15.3164   15.2160 O   0  0  0  0  0  0  0  0  0  0  0  0
   27.7109   15.4336   11.4217 C   0  0  0  0  0  0  0  0  0  0  0  0
   30.1567   17.6538   17.8886 O   0  0  0  0  0  0  0  0  0  0  0  0
   27.7928   15.3671   12.9494 C   0  0  1  0  0  0  0  0  0  0  0  0
   29.5197   15.1471   19.0467 O   0  0  0  0  0  0  0  0  0  0  0  0
   29.0664   14.6569   13.4175 C   0  0  2  0  0  0  0  0  0  0  0  0
   30.2717   14.2371   15.4562 C   0  0  1  0  0  0  0  0  0  0  0  0
   30.7980   16.5696   15.8093 C   0  0  2  0  0  0  0  0  0  0  0  0
   31.8495   17.6470   15.5353 C   0  0  0  0  0  0  0  0  0  0  0  0
   30.6357   16.4287   17.3252 C   0  0  2  0  0  0  0  0  0  0  0  0
   29.6251   15.3224   17.6326 C   0  0  1  0  0  0  0  0  0  0  0  0
   30.0950   14.0272   16.9650 C   0  0  1  0  0  0  0  0  0  0  0  0
  5  4  1  6  0  0  0
  5  8  1  0  0  0  0
  5 16  1  0  0  0  0
  8  7  1  1  0  0  0
  8 10  1  0  0  0  0
 10  1  1  6  0  0  0
 10 12  1  0  0  0  0
 11 18  1  0  0  0  0
 12 14  1  0  0  0  0
 14  2  1  1  0  0  0
 14 16  1  0  0  0  0
 16  9  1  1  0  0  0
 17  9  1  1  0  0  0
 17 11  1  0  0  0  0
 17 22  1  0  0  0  0
 18 19  1  1  0  0  0
 18 20  1  0  0  0  0
 19  3  1  0  0  0  0
 20 13  1  6  0  0  0
 20 21  1  0  0  0  0
 21 15  1  1  0  0  0
 21 22  1  0  0  0  0
 22  6  1  6  0  0  0
M  END
>  <CHROM.1>
75.10942922,64.30607201,167.66790071,29.51427388,15.00323969,14.49979155
-3.10137286,1.27820086,2.68600400

>  <Name>
2fcx_lig

>  <RI>
1.15031e+07

>  <Rbt.Current_Directory>
/home/itssahil/PROJECTS/Mol_Feturizer/New_Systems/rnas/2fcx

>  <Rbt.Executable>
rbdock ($Id: //depot/dev/client3/rdock/2013.1/src/exe/rbdock.cxx#4 $)

>  <Rbt.Library>
libRbt.so (2013.1, Build901 2013/11/27)

>  <Rbt.Parameter_File>
/export/apps/rDock/src/rDock_2013.1_src/data/scripts/dock_solv.prm

>  <Rbt.Receptor>
prm/pocket_docking_8.prm

>  <SCORE>
-13.0473

>  <SCORE.INTER>
-11.9675

>  <SCORE.INTER.CONST>
1

>  <SCORE.INTER.POLAR>
-1.65199

>  <SCORE.INTER.ROT>
3

>  <SCORE.INTER.SOLV>
15.2902

>  <SCORE.INTER.VDW>
-13.1685

>  <SCORE.INTER.norm>
-0.543979

>  <SCORE.INTRA>
-1.08535

>  <SCORE.INTRA.DIHEDRAL>
-3.18106

>  <SCORE.INTRA.DIHEDRAL.0>
4.88619

>  <SCORE.INTRA.POLAR>
0

>  <SCORE.INTRA.POLAR.0>
0

>  <SCORE.INTRA.REPUL>
0

>  <SCORE.INTRA.REPUL.0>
0

>  <SCORE.INTRA.SOLV>
0.429374

>  <SCORE.INTRA.SOLV.lig_0>
-73.8187

>  <SCORE.INTRA.VDW>
0.29049

>  <SCORE.INTRA.VDW.0>
-1.32335

>  <SCORE.INTRA.norm>
-0.0493342

>  <SCORE.RESTR>
0.00560408

>  <SCORE.RESTR.CAVITY>
0.00560408

>  <SCORE.RESTR.norm>
0.000254731

>  <SCORE.SYSTEM>
0

>  <SCORE.SYSTEM.CONST>
0

>  <SCORE.SYSTEM.DIHEDRAL>
0

>  <SCORE.SYSTEM.SOLV>
0

>  <SCORE.SYSTEM.norm>
0

>  <SCORE.heavy>
22

>  <SCORE.norm>
-0.593059

>  <RMSD>
7.138

$$$$
2fcx_lig
 OpenBabel11021811433D
libRbt.so/2013.1/901 2013/11/27
 22 23  0  0  0  0  0  0  0  0999 V2000
   24.3136    8.9191   16.6074 N   0  0  0  0  0  0  0  0  0  0  0  0
   27.9516    7.9272   13.4680 N   0  0  0  0  0  0  0  0  0  0  0  0
   27.4464    7.3157    7.5053 N   0  0  0  0  0  0  0  0  0  0  0  0
   24.6378   11.3171   12.3690 O   0  0  0  0  0  0  0  0  0  0  0  0
   24.8296   10.0495   13.0030 C   0  0  2  0  0  0  0  0  0  0  0  0
   28.0279   11.6954   12.2899 N   0  0  0  0  0  0  0  0  0  0  0  0
   23.0123   10.4327   14.5225 O   0  0  0  0  0  0  0  0  0  0  0  0
   24.4120   10.1323   14.4731 C   0  0  1  0  0  0  0  0  0  0  0  0
   26.5775    9.3641   11.4518 O   0  0  0  0  0  0  0  0  0  0  0  0
   24.6759    8.8045   15.1871 C   0  0  1  0  0  0  0  0  0  0  0  0
   28.2259    8.8719    9.8606 O   0  0  0  0  0  0  0  0  0  0  0  0
   26.1544    8.4175   15.0752 C   0  0  0  0  0  0  0  0  0  0  0  0
   27.0673   11.5072    7.5381 O   0  0  0  0  0  0  0  0  0  0  0  0
   26.5346    8.2954   13.5970 C   0  0  1  0  0  0  0  0  0  0  0  0
   27.9259   13.0437    9.7589 O   0  0  0  0  0  0  0  0  0  0  0  0
   26.2876    9.6033   12.8392 C   0  0  2  0  0  0  0  0  0  0  0  0
   27.9684    9.5182   11.1208 C   0  0  1  0  0  0  0  0  0  0  0  0
   27.5093    9.4459    8.7488 C   0  0  2  0  0  0  0  0  0  0  0  0
   27.8696    8.7229    7.4491 C   0  0  0  0  0  0  0  0  0  0  0  0
   27.8516   10.9293    8.5862 C   0  0  2  0  0  0  0  0  0  0  0  0
   27.5483   11.6718    9.8886 C   0  0  1  0  0  0  0  0  0  0  0  0
   28.3262   11.0065   11.0271 C   0  0  1  0  0  0  0  0  0  0  0  0
  5  4  1  1  0  0  0
  5  8  1  0  0  0  0
  5 16  1  0  0  0  0
  8  7  1  6  0  0  0
  8 10  1  0  0  0  0
 10  1  1  1  0  0  0
 10 12  1  0  0  0  0
 11 18  1  0  0  0  0
 12 14  1  0  0  0  0
 14  2  1  1  0  0  0
 14 16  1  0  0  0  0
 16  9  1  6  0  0  0
 17  9  1  6  0  0  0
 17 11  1  0  0  0  0
 17 22  1  0  0  0  0
 18 19  1  6  0  0  0
 18 20  1  0  0  0  0
 19  3  1  0  0  0  0
 20 13  1  6  0  0  0
 20 21  1  0  0  0  0
 21 15  1  6  0  0  0
 21 22  1  0  0  0  0
 22  6  1  1  0  0  0
M  END
>  <CHROM.1>
154.30136170,162.26819444,63.55430630,26.58430100,9.89485125,11.61842609
-2.60355019,1.05158634,-0.47652144

>  <Name>
2fcx_lig

>  <RI>
1.15031e+07

>  <Rbt.Current_Directory>
/home/itssahil/PROJECTS/Mol_Feturizer/New_Systems/rnas/2fcx

>  <Rbt.Executable>
rbdock ($Id: //depot/dev/client3/rdock/2013.1/src/exe/rbdock.cxx#4 $)

>  <Rbt.Library>
libRbt.so (2013.1, Build901 2013/11/27)

>  <Rbt.Parameter_File>
/export/apps/rDock/src/rDock_2013.1_src/data/scripts/dock_solv.prm

>  <Rbt.Receptor>
prm/pocket_docking_8.prm

>  <SCORE>
-14.7391

>  <SCORE.INTER>
-16.0173

>  <SCORE.INTER.CONST>
1

>  <SCORE.INTER.POLAR>
-2.32464

>  <SCORE.INTER.ROT>
3

>  <SCORE.INTER.SOLV>
14.6483

>  <SCORE.INTER.VDW>
-13.4122

>  <SCORE.INTER.norm>
-0.728058

>  <SCORE.INTRA>
1.27812

>  <SCORE.INTRA.DIHEDRAL>
-0.595537

>  <SCORE.INTRA.DIHEDRAL.0>
4.88619

>  <SCORE.INTRA.POLAR>
0

>  <SCORE.INTRA.POLAR.0>
0

>  <SCORE.INTRA.REPUL>
0

>  <SCORE.INTRA.REPUL.0>
0

>  <SCORE.INTRA.SOLV>
2.66991

>  <SCORE.INTRA.SOLV.lig_0>
-73.8187

>  <SCORE.INTRA.VDW>
0.240934

>  <SCORE.INTRA.VDW.0>
-1.32335

>  <SCORE.INTRA.norm>
0.0580965

>  <SCORE.RESTR>
0

>  <SCORE.RESTR.CAVITY>
0

>  <SCORE.RESTR.norm>
0

>  <SCORE.SYSTEM>
0

>  <SCORE.SYSTEM.CONST>
0

>  <SCORE.SYSTEM.DIHEDRAL>
0

>  <SCORE.SYSTEM.SOLV>
0

>  <SCORE.SYSTEM.norm>
0

>  <SCORE.heavy>
22

>  <SCORE.norm>
-0.669961

>  <RMSD>
7.162

$$$$
2fcx_lig
 OpenBabel11021811433D
libRbt.so/2013.1/901 2013/11/27
 22 23  0  0  0  0  0  0  0  0999 V2000
   34.9456   14.2767   12.8600 N   0  0  0  0  0  0  0  0  0  0  0  0
   30.2809   13.3363   14.0559 N   0  0  0  0  0  0  0  0  0  0  0  0
   28.6156   11.2583    9.6834 N   0  0  0  0  0  0  0  0  0  0  0  0
   31.3214   15.5539    9.8512 O   0  0  0  0  0  0  0  0  0  0  0  0
   31.7041   15.4399   11.2246 C   0  0  2  0  0  0  0  0  0  0  0  0
   27.8403   17.4341   11.5886 N   0  0  0  0  0  0  0  0  0  0  0  0
   33.9909   15.9686   10.7253 O   0  0  0  0  0  0  0  0  0  0  0  0
   33.1572   14.9698   11.3246 C   0  0  1  0  0  0  0  0  0  0  0  0
   29.4217   15.0723   11.9905 O   0  0  0  0  0  0  0  0  0  0  0  0
   33.5639   14.7739   12.7870 C   0  0  1  0  0  0  0  0  0  0  0  0
   28.6359   14.1654    9.9776 O   0  0  0  0  0  0  0  0  0  0  0  0
   32.6320   13.7710   13.4755 C   0  0  0  0  0  0  0  0  0  0  0  0
   25.3482   13.2749   11.4195 O   0  0  0  0  0  0  0  0  0  0  0  0
   31.1920   14.2867   13.4028 C   0  0  1  0  0  0  0  0  0  0  0  0
   25.2982   16.1029   11.5931 O   0  0  0  0  0  0  0  0  0  0  0  0
   30.7390   14.4982   11.9551 C   0  0  2  0  0  0  0  0  0  0  0  0
   28.8980   15.3890   10.6892 C   0  0  1  0  0  0  0  0  0  0  0  0
   27.6338   13.3311   10.5929 C   0  0  2  0  0  0  0  0  0  0  0  0
   27.3943   12.0743    9.7534 C   0  0  0  0  0  0  0  0  0  0  0  0
   26.3060   14.0816   10.7271 C   0  0  2  0  0  0  0  0  0  0  0  0
   26.5231   15.3708   11.5211 C   0  0  1  0  0  0  0  0  0  0  0  0
   27.6045   16.2014   10.8250 C   0  0  1  0  0  0  0  0  0  0  0  0
  5  4  1  6  0  0  0
  5  8  1  0  0  0  0
  5 16  1  0  0  0  0
  8  7  1  1  0  0  0
  8 10  1  0  0  0  0
 10  1  1  6  0  0  0
 10 12  1  0  0  0  0
 11 18  1  0  0  0  0
 12 14  1  0  0  0  0
 14  2  1  6  0  0  0
 14 16  1  0  0  0  0
 16  9  1  1  0  0  0
 17  9  1  1  0  0  0
 17 11  1  0  0  0  0
 17 22  1  0  0  0  0
 18 19  1  6  0  0  0
 18 20  1  0  0  0  0
 19  3  1  0  0  0  0
 20 13  1  1  0  0  0
 20 21  1  0  0  0  0
 21 15  1  6  0  0  0
 21 22  1  0  0  0  0
 22  6  1  1  0  0  0
M  END
>  <CHROM.1>
56.58018735,68.67198057,62.89376961,29.65618476,14.58294304,11.43365229,-0.07831751
0.17803398,-3.04571898

>  <Name>
2fcx_lig

>  <RI>
4.08374e+07

>  <Rbt.Current_Directory>
/home/itssahil/PROJECTS/Mol_Feturizer/New_Systems/rnas/2fcx

>  <Rbt.Executable>
rbdock ($Id: //depot/dev/client3/rdock/2013.1/src/exe/rbdock.cxx#4 $)

>  <Rbt.Library>
libRbt.so (2013.1, Build901 2013/11/27)

>  <Rbt.Parameter_File>
/export/apps/rDock/src/rDock_2013.1_src/data/scripts/dock_solv.prm

>  <Rbt.Receptor>
prm/pocket_docking_7.prm

>  <SCORE>
-12.1411

>  <SCORE.INTER>
-11.2383

>  <SCORE.INTER.CONST>
1

>  <SCORE.INTER.POLAR>
-2.20122

>  <SCORE.INTER.ROT>
3

>  <SCORE.INTER.SOLV>
14.576

>  <SCORE.INTER.VDW>
-10.6135

>  <SCORE.INTER.norm>
-0.510833

>  <SCORE.INTRA>
-0.902804

>  <SCORE.INTRA.DIHEDRAL>
-4.42664

>  <SCORE.INTRA.DIHEDRAL.0>
4.88619

>  <SCORE.INTRA.POLAR>
0

>  <SCORE.INTRA.POLAR.0>
0

>  <SCORE.INTRA.REPUL>
0

>  <SCORE.INTRA.REPUL.0>
0

>  <SCORE.INTRA.SOLV>
-1.08419

>  <SCORE.INTRA.SOLV.lig_0>
-73.8187

>  <SCORE.INTRA.VDW>
1.85261

>  <SCORE.INTRA.VDW.0>
-1.32335

>  <SCORE.INTRA.norm>
-0.0410365

>  <SCORE.RESTR>
0

>  <SCORE.RESTR.CAVITY>
0

>  <SCORE.RESTR.norm>
0

>  <SCORE.SYSTEM>
0

>  <SCORE.SYSTEM.CONST>
0

>  <SCORE.SYSTEM.DIHEDRAL>
0

>  <SCORE.SYSTEM.SOLV>
0

>  <SCORE.SYSTEM.norm>
0

>  <SCORE.heavy>
22

>  <SCORE.norm>
-0.551869

>  <RMSD>
7.168

$$$$
2fcx_lig
 OpenBabel11021811433D
libRbt.so/2013.1/901 2013/11/27
 22 23  0  0  0  0  0  0  0  0999 V2000
   24.1861    8.9514   16.5663 N   0  0  0  0  0  0  0  0  0  0  0  0
   27.8027    7.8254   13.4474 N   0  0  0  0  0  0  0  0  0  0  0  0
   27.3716    7.3420    7.4704 N   0  0  0  0  0  0  0  0  0  0  0  0
   24.6658   11.3839   12.3625 O   0  0  0  0  0  0  0  0  0  0  0  0
   24.7906   10.1007   12.9817 C   0  0  2  0  0  0  0  0  0  0  0  0
   28.0592   11.6010   12.3366 N   0  0  0  0  0  0  0  0  0  0  0  0
   22.9790   10.5517   14.4894 O   0  0  0  0  0  0  0  0  0  0  0  0
   24.3632   10.1850   14.4489 C   0  0  1  0  0  0  0  0  0  0  0  0
   26.5186    9.3517   11.4377 O   0  0  0  0  0  0  0  0  0  0  0  0
   24.5563    8.8373   15.1479 C   0  0  1  0  0  0  0  0  0  0  0  0
   28.1567    8.8254    9.8466 O   0  0  0  0  0  0  0  0  0  0  0  0
   26.0156    8.3812   15.0446 C   0  0  0  0  0  0  0  0  0  0  0  0
   27.1267   11.5573    7.5756 O   0  0  0  0  0  0  0  0  0  0  0  0
   26.4038    8.2595   13.5683 C   0  0  1  0  0  0  0  0  0  0  0  0
   28.0325   13.0074    9.8354 O   0  0  0  0  0  0  0  0  0  0  0  0
   26.2271    9.5871   12.8254 C   0  0  2  0  0  0  0  0  0  0  0  0
   27.9171    9.4544   11.1192 C   0  0  1  0  0  0  0  0  0  0  0  0
   27.4730    9.4532    8.7432 C   0  0  2  0  0  0  0  0  0  0  0  0
   27.8122    8.7444    7.4302 C   0  0  0  0  0  0  0  0  0  0  0  0
   27.8783   10.9242    8.6157 C   0  0  2  0  0  0  0  0  0  0  0  0
   27.5968   11.6501    9.9323 C   0  0  1  0  0  0  0  0  0  0  0  0
   28.3377   10.9280   11.0607 C   0  0  1  0  0  0  0  0  0  0  0  0
  5  4  1  1  0  0  0
  5  8  1  0  0  0  0
  5 16  1  0  0  0  0
  8  7  1  6  0  0  0
  8 10  1  0  0  0  0
 10  1  1  1  0  0  0
 10 12  1  0  0  0  0
 11 18  1  0  0  0  0
 12 14  1  0  0  0  0
 14  2  1  1  0  0  0
 14 16  1  0  0  0  0
 16  9  1  6  0  0  0
 17  9  1  6  0  0  0
 17 11  1  0  0  0  0
 17 22  1  0  0  0  0
 18 19  1  6  0  0  0
 18 20  1  0  0  0  0
 19  3  1  0  0  0  0
 20 13  1  6  0  0  0
 20 21  1  0  0  0  0
 21 15  1  6  0  0  0
 21 22  1  0  0  0  0
 22  6  1  1  0  0  0
M  END
>  <CHROM.1>
153.79602014,162.92024605,61.58965676,26.54592009,9.89199592,11.61516952
-2.68303125,1.05940008,-0.39482471

>  <Name>
2fcx_lig

>  <RI>
1.15031e+07

>  <Rbt.Current_Directory>
/home/itssahil/PROJECTS/Mol_Feturizer/New_Systems/rnas/2fcx

>  <Rbt.Executable>
rbdock ($Id: //depot/dev/client3/rdock/2013.1/src/exe/rbdock.cxx#4 $)

>  <Rbt.Library>
libRbt.so (2013.1, Build901 2013/11/27)

>  <Rbt.Parameter_File>
/export/apps/rDock/src/rDock_2013.1_src/data/scripts/dock_solv.prm

>  <Rbt.Receptor>
prm/pocket_docking_8.prm

>  <SCORE>
-14.7119

>  <SCORE.INTER>
-15.9875

>  <SCORE.INTER.CONST>
1

>  <SCORE.INTER.POLAR>
-2.34744

>  <SCORE.INTER.ROT>
3

>  <SCORE.INTER.SOLV>
14.7224

>  <SCORE.INTER.VDW>
-13.341

>  <SCORE.INTER.norm>
-0.726704

>  <SCORE.INTRA>
1.27559

>  <SCORE.INTRA.DIHEDRAL>
-0.634818

>  <SCORE.INTRA.DIHEDRAL.0>
4.88619

>  <SCORE.INTRA.POLAR>
0

>  <SCORE.INTRA.POLAR.0>
0

>  <SCORE.INTRA.REPUL>
0

>  <SCORE.INTRA.REPUL.0>
0

>  <SCORE.INTRA.SOLV>
2.71886

>  <SCORE.INTRA.SOLV.lig_0>
-73.8187

>  <SCORE.INTRA.VDW>
0.233569

>  <SCORE.INTRA.VDW.0>
-1.32335

>  <SCORE.INTRA.norm>
0.0579815

>  <SCORE.RESTR>
0

>  <SCORE.RESTR.CAVITY>
0

>  <SCORE.RESTR.norm>
0

>  <SCORE.SYSTEM>
0

>  <SCORE.SYSTEM.CONST>
0

>  <SCORE.SYSTEM.DIHEDRAL>
0

>  <SCORE.SYSTEM.SOLV>
0

>  <SCORE.SYSTEM.norm>
0

>  <SCORE.heavy>
22

>  <SCORE.norm>
-0.668723

>  <RMSD>
7.182

$$$$
2fcx_lig
 OpenBabel11021811433D
libRbt.so/2013.1/901 2013/11/27
 22 23  0  0  0  0  0  0  0  0999 V2000
   27.5148    8.5999   16.4438 N   0  0  0  0  0  0  0  0  0  0  0  0
   29.8093    9.7723   12.2682 N   0  0  0  0  0  0  0  0  0  0  0  0
   27.7819    8.9667    6.8717 N   0  0  0  0  0  0  0  0  0  0  0  0
   25.1942   11.1400   12.9823 O   0  0  0  0  0  0  0  0  0  0  0  0
   26.1398   10.0929   13.2164 C   0  0  2  0  0  0  0  0  0  0  0  0
   27.7418   13.2345   11.8039 N   0  0  0  0  0  0  0  0  0  0  0  0
   25.0256    9.4136   15.2301 O   0  0  0  0  0  0  0  0  0  0  0  0
   26.2905    9.8517   14.7203 C   0  0  1  0  0  0  0  0  0  0  0  0
   27.3189   10.4786   11.1207 O   0  0  0  0  0  0  0  0  0  0  0  0
   27.3507    8.7825   14.9941 C   0  0  1  0  0  0  0  0  0  0  0  0
   28.4744   10.7688    9.1026 O   0  0  0  0  0  0  0  0  0  0  0  0
   28.6961    9.1893   14.3834 C   0  0  0  0  0  0  0  0  0  0  0  0
   25.6414   12.5165    7.4899 O   0  0  0  0  0  0  0  0  0  0  0  0
   28.5291    9.3785   12.8731 C   0  0  1  0  0  0  0  0  0  0  0  0
   26.3197   14.3254    9.5630 O   0  0  0  0  0  0  0  0  0  0  0  0
   27.4757   10.4420   12.5490 C   0  0  2  0  0  0  0  0  0  0  0  0
   28.3305   11.2509   10.4514 C   0  0  1  0  0  0  0  0  0  0  0  0
   27.2897   10.9211    8.2950 C   0  0  2  0  0  0  0  0  0  0  0  0
   27.5434   10.4177    6.8723 C   0  0  0  0  0  0  0  0  0  0  0  0
   26.8667   12.3906    8.2181 C   0  0  2  0  0  0  0  0  0  0  0  0
   26.6532   12.9377    9.6305 C   0  0  1  0  0  0  0  0  0  0  0  0
   27.9384   12.7334   10.4370 C   0  0  1  0  0  0  0  0  0  0  0  0
  5  4  1  1  0  0  0
  5  8  1  0  0  0  0
  5 16  1  0  0  0  0
  8  7  1  6  0  0  0
  8 10  1  0  0  0  0
 10  1  1  1  0  0  0
 10 12  1  0  0  0  0
 11 18  1  0  0  0  0
 12 14  1  0  0  0  0
 14  2  1  1  0  0  0
 14 16  1  0  0  0  0
 16  9  1  6  0  0  0
 17  9  1  6  0  0  0
 17 11  1  0  0  0  0
 17 22  1  0  0  0  0
 18 19  1  6  0  0  0
 18 20  1  0  0  0  0
 19  3  1  0  0  0  0
 20 13  1  6  0  0  0
 20 21  1  0  0  0  0
 21 15  1  6  0  0  0
 21 22  1  0  0  0  0
 22  6  1  1  0  0  0
M  END
>  <CHROM.1>
158.38426662,154.36094149,65.73596157,27.23268138,10.82226878,11.31886238
-1.58658165,0.91753537,-1.21069758

>  <Name>
2fcx_lig

>  <RI>
4.08374e+07

>  <Rbt.Current_Directory>
/home/itssahil/PROJECTS/Mol_Feturizer/New_Systems/rnas/2fcx

>  <Rbt.Executable>
rbdock ($Id: //depot/dev/client3/rdock/2013.1/src/exe/rbdock.cxx#4 $)

>  <Rbt.Library>
libRbt.so (2013.1, Build901 2013/11/27)

>  <Rbt.Parameter_File>
/export/apps/rDock/src/rDock_2013.1_src/data/scripts/dock_solv.prm

>  <Rbt.Receptor>
prm/pocket_docking_7.prm

>  <SCORE>
-7.97409

>  <SCORE.INTER>
-9.41987

>  <SCORE.INTER.CONST>
1

>  <SCORE.INTER.POLAR>
-1.41986

>  <SCORE.INTER.ROT>
3

>  <SCORE.INTER.SOLV>
9.88527

>  <SCORE.INTER.VDW>
-10.4421

>  <SCORE.INTER.norm>
-0.428176

>  <SCORE.INTRA>
1.44578

>  <SCORE.INTRA.DIHEDRAL>
0.0909218

>  <SCORE.INTRA.DIHEDRAL.0>
4.88619

>  <SCORE.INTRA.POLAR>
0

>  <SCORE.INTRA.POLAR.0>
0

>  <SCORE.INTRA.REPUL>
0

>  <SCORE.INTRA.REPUL.0>
0

>  <SCORE.INTRA.SOLV>
2.28227

>  <SCORE.INTRA.SOLV.lig_0>
-73.8187

>  <SCORE.INTRA.VDW>
0.259188

>  <SCORE.INTRA.VDW.0>
-1.32335

>  <SCORE.INTRA.norm>
0.0657174

>  <SCORE.RESTR>
0

>  <SCORE.RESTR.CAVITY>
0

>  <SCORE.RESTR.norm>
0

>  <SCORE.SYSTEM>
0

>  <SCORE.SYSTEM.CONST>
0

>  <SCORE.SYSTEM.DIHEDRAL>
0

>  <SCORE.SYSTEM.SOLV>
0

>  <SCORE.SYSTEM.norm>
0

>  <SCORE.heavy>
22

>  <SCORE.norm>
-0.362458

>  <RMSD>
7.198

$$$$
2fcx_lig
 OpenBabel11021811433D
libRbt.so/2013.1/901 2013/11/27
 22 23  0  0  0  0  0  0  0  0999 V2000
   28.4532    7.8124   14.8751 N   0  0  0  0  0  0  0  0  0  0  0  0
   25.8062   10.5355   11.7681 N   0  0  0  0  0  0  0  0  0  0  0  0
   28.5438   10.4932    8.2900 N   0  0  0  0  0  0  0  0  0  0  0  0
   30.2543   11.9882   13.1037 O   0  0  0  0  0  0  0  0  0  0  0  0
   29.0646   11.3378   13.5587 C   0  0  2  0  0  0  0  0  0  0  0  0
   27.7197   15.5561   12.0749 N   0  0  0  0  0  0  0  0  0  0  0  0
   30.2839   10.0262   15.1559 O   0  0  0  0  0  0  0  0  0  0  0  0
   29.3939    9.9222   14.0383 C   0  0  1  0  0  0  0  0  0  0  0  0
   27.6038   12.6889   12.1545 O   0  0  0  0  0  0  0  0  0  0  0  0
   28.1222    9.1846   14.4637 C   0  0  1  0  0  0  0  0  0  0  0  0
   28.5695   12.5591   10.0233 O   0  0  0  0  0  0  0  0  0  0  0  0
   27.1168    9.1342   13.3084 C   0  0  0  0  0  0  0  0  0  0  0  0
   25.4320   13.5163    8.3141 O   0  0  0  0  0  0  0  0  0  0  0  0
   26.7684   10.5621   12.8788 C   0  0  1  0  0  0  0  0  0  0  0  0
   26.0178   15.8662    9.7855 O   0  0  0  0  0  0  0  0  0  0  0  0
   28.0127   11.3414   12.4428 C   0  0  2  0  0  0  0  0  0  0  0  0
   28.4599   13.3603   11.2143 C   0  0  1  0  0  0  0  0  0  0  0  0
   27.3217   12.3695    9.3261 C   0  0  2  0  0  0  0  0  0  0  0  0
   27.5375   11.5401    8.0583 C   0  0  0  0  0  0  0  0  0  0  0  0
   26.7111   13.7148    8.9240 C   0  0  2  0  0  0  0  0  0  0  0  0
   26.5288   14.5875   10.1669 C   0  0  1  0  0  0  0  0  0  0  0  0
   27.8826   14.7376   10.8659 C   0  0  1  0  0  0  0  0  0  0  0  0
  5  4  1  6  0  0  0
  5  8  1  0  0  0  0
  5 16  1  0  0  0  0
  8  7  1  1  0  0  0
  8 10  1  0  0  0  0
 10  1  1  6  0  0  0
 10 12  1  0  0  0  0
 11 18  1  0  0  0  0
 12 14  1  0  0  0  0
 14  2  1  6  0  0  0
 14 16  1  0  0  0  0
 16  9  1  1  0  0  0
 17  9  1  1  0  0  0
 17 11  1  0  0  0  0
 17 22  1  0  0  0  0
 18 19  1  6  0  0  0
 18 20  1  0  0  0  0
 19  3  1  0  0  0  0
 20 13  1  1  0  0  0
 20 21  1  0  0  0  0
 21 15  1  6  0  0  0
 21 22  1  0  0  0  0
 22  6  1  1  0  0  0
M  END
>  <CHROM.1>
85.42885044,54.12326623,37.26929210,27.80804117,11.97342688,11.56861842,0.78397846
1.14401684,3.05184440

>  <Name>
2fcx_lig

>  <RI>
0

>  <Rbt.Current_Directory>
/home/itssahil/PROJECTS/Mol_Feturizer/New_Systems/rnas/2fcx

>  <Rbt.Executable>
rbdock ($Id: //depot/dev/client3/rdock/2013.1/src/exe/rbdock.cxx#4 $)

>  <Rbt.Library>
libRbt.so (2013.1, Build901 2013/11/27)

>  <Rbt.Parameter_File>
/export/apps/rDock/src/rDock_2013.1_src/data/scripts/dock_solv.prm

>  <Rbt.Receptor>
prm/pocket_docking_6.prm

>  <SCORE>
-11.1544

>  <SCORE.INTER>
-11.0436

>  <SCORE.INTER.CONST>
1

>  <SCORE.INTER.POLAR>
-2.18925

>  <SCORE.INTER.ROT>
3

>  <SCORE.INTER.SOLV>
12.4002

>  <SCORE.INTER.VDW>
-9.7983

>  <SCORE.INTER.norm>
-0.501984

>  <SCORE.INTRA>
-0.110739

>  <SCORE.INTRA.DIHEDRAL>
-0.297587

>  <SCORE.INTRA.DIHEDRAL.0>
4.88619

>  <SCORE.INTRA.POLAR>
0

>  <SCORE.INTRA.POLAR.0>
0

>  <SCORE.INTRA.REPUL>
0

>  <SCORE.INTRA.REPUL.0>
0

>  <SCORE.INTRA.SOLV>
0.547859

>  <SCORE.INTRA.SOLV.lig_0>
-73.8187

>  <SCORE.INTRA.VDW>
-0.235875

>  <SCORE.INTRA.VDW.0>
-1.32335

>  <SCORE.INTRA.norm>
-0.00503358

>  <SCORE.RESTR>
0

>  <SCORE.RESTR.CAVITY>
0

>  <SCORE.RESTR.norm>
0

>  <SCORE.SYSTEM>
0

>  <SCORE.SYSTEM.CONST>
0

>  <SCORE.SYSTEM.DIHEDRAL>
0

>  <SCORE.SYSTEM.SOLV>
0

>  <SCORE.SYSTEM.norm>
0

>  <SCORE.heavy>
22

>  <SCORE.norm>
-0.507017

>  <RMSD>
7.233

$$$$
2fcx_lig
 OpenBabel11021811433D
libRbt.so/2013.1/901 2013/11/27
 22 23  0  0  0  0  0  0  0  0999 V2000
   30.1780    8.4978   15.5021 N   0  0  0  0  0  0  0  0  0  0  0  0
   30.3488   13.3407   14.7329 N   0  0  0  0  0  0  0  0  0  0  0  0
   32.9029   15.5944   11.8512 N   0  0  0  0  0  0  0  0  0  0  0  0
   27.7504   10.4899   11.7662 O   0  0  0  0  0  0  0  0  0  0  0  0
   28.9490   10.5637   12.5429 C   0  0  2  0  0  0  0  0  0  0  0  0
   26.5860   13.9981   11.7986 N   0  0  0  0  0  0  0  0  0  0  0  0
   28.9732    8.1905   12.8973 O   0  0  0  0  0  0  0  0  0  0  0  0
   28.9640    9.4455   13.5878 C   0  0  1  0  0  0  0  0  0  0  0  0
   29.2348   12.9516   12.1589 O   0  0  0  0  0  0  0  0  0  0  0  0
   30.2062    9.5501   14.4757 C   0  0  1  0  0  0  0  0  0  0  0  0
   30.0781   15.1131   12.4882 O   0  0  0  0  0  0  0  0  0  0  0  0
   30.2644   10.9194   15.1613 C   0  0  0  0  0  0  0  0  0  0  0  0
   29.9447   15.9400    8.8855 O   0  0  0  0  0  0  0  0  0  0  0  0
   30.2958   12.0177   14.0949 C   0  0  1  0  0  0  0  0  0  0  0  0
   27.1986   15.5891    9.4905 O   0  0  0  0  0  0  0  0  0  0  0  0
   29.0692   11.9535   13.1799 C   0  0  2  0  0  0  0  0  0  0  0  0
   28.9081   14.2816   12.5975 C   0  0  1  0  0  0  0  0  0  0  0  0
   30.5628   15.2707   11.1395 C   0  0  2  0  0  0  0  0  0  0  0  0
   31.7819   16.1953   11.1133 C   0  0  0  0  0  0  0  0  0  0  0  0
   29.4817   15.8728   10.2378 C   0  0  2  0  0  0  0  0  0  0  0  0
   28.2296   14.9953   10.2817 C   0  0  1  0  0  0  0  0  0  0  0  0
   27.7763   14.8571   11.7375 C   0  0  1  0  0  0  0  0  0  0  0  0
  5  4  1  1  0  0  0
  5  8  1  0  0  0  0
  5 16  1  0  0  0  0
  8  7  1  6  0  0  0
  8 10  1  0  0  0  0
 10  1  1  1  0  0  0
 10 12  1  0  0  0  0
 11 18  1  0  0  0  0
 12 14  1  0  0  0  0
 14  2  1  1  0  0  0
 14 16  1  0  0  0  0
 16  9  1  6  0  0  0
 17  9  1  6  0  0  0
 17 11  1  0  0  0  0
 17 22  1  0  0  0  0
 18 19  1  1  0  0  0
 18 20  1  0  0  0  0
 19  3  1  0  0  0  0
 20 13  1  6  0  0  0
 20 21  1  0  0  0  0
 21 15  1  6  0  0  0
 21 22  1  0  0  0  0
 22  6  1  6  0  0  0
M  END
>  <CHROM.1>
160.15625783,118.85774147,64.25678612,29.42441445,12.98883009,12.30867213
-1.58010967,-0.52872474,-0.53344168

>  <Name>
2fcx_lig

>  <RI>
3.23342e+07

>  <Rbt.Current_Directory>
/home/itssahil/PROJECTS/Mol_Feturizer/New_Systems/rnas/2fcx

>  <Rbt.Executable>
rbdock ($Id: //depot/dev/client3/rdock/2013.1/src/exe/rbdock.cxx#4 $)

>  <Rbt.Library>
libRbt.so (2013.1, Build901 2013/11/27)

>  <Rbt.Parameter_File>
/export/apps/rDock/src/rDock_2013.1_src/data/scripts/dock_solv.prm

>  <Rbt.Receptor>
prm/pocket_docking_5.prm

>  <SCORE>
23.8704

>  <SCORE.INTER>
20.5206

>  <SCORE.INTER.CONST>
1

>  <SCORE.INTER.POLAR>
-0.0725411

>  <SCORE.INTER.ROT>
3

>  <SCORE.INTER.SOLV>
12.8569

>  <SCORE.INTER.VDW>
4.03658

>  <SCORE.INTER.norm>
0.932756

>  <SCORE.INTRA>
2.87451

>  <SCORE.INTRA.DIHEDRAL>
4.15035

>  <SCORE.INTRA.DIHEDRAL.0>
4.88619

>  <SCORE.INTRA.POLAR>
0

>  <SCORE.INTRA.POLAR.0>
0

>  <SCORE.INTRA.REPUL>
0

>  <SCORE.INTRA.REPUL.0>
0

>  <SCORE.INTRA.SOLV>
1.37437

>  <SCORE.INTRA.SOLV.lig_0>
-73.8187

>  <SCORE.INTRA.VDW>
0.112153

>  <SCORE.INTRA.VDW.0>
-1.32335

>  <SCORE.INTRA.norm>
0.13066

>  <SCORE.RESTR>
0.475301

>  <SCORE.RESTR.CAVITY>
0.475301

>  <SCORE.RESTR.norm>
0.0216046

>  <SCORE.SYSTEM>
0

>  <SCORE.SYSTEM.CONST>
0

>  <SCORE.SYSTEM.DIHEDRAL>
0

>  <SCORE.SYSTEM.SOLV>
0

>  <SCORE.SYSTEM.norm>
0

>  <SCORE.heavy>
22

>  <SCORE.norm>
1.08502

>  <RMSD>
7.263

$$$$
2fcx_lig
 OpenBabel11021811433D
libRbt.so/2013.1/901 2013/11/27
 22 23  0  0  0  0  0  0  0  0999 V2000
   28.6269   11.6197   14.8415 N   0  0  0  0  0  0  0  0  0  0  0  0
   28.8998   10.9573    9.9875 N   0  0  0  0  0  0  0  0  0  0  0  0
   25.3950   10.4772    7.4394 N   0  0  0  0  0  0  0  0  0  0  0  0
   26.6500    7.6645   12.7760 O   0  0  0  0  0  0  0  0  0  0  0  0
   27.7519    8.5746   12.7210 C   0  0  2  0  0  0  0  0  0  0  0  0
   28.2752    5.4024   10.2743 N   0  0  0  0  0  0  0  0  0  0  0  0
   27.7279    8.8891   15.0998 O   0  0  0  0  0  0  0  0  0  0  0  0
   27.6435    9.5952   13.8563 C   0  0  1  0  0  0  0  0  0  0  0  0
   28.0871    8.2664   10.3286 O   0  0  0  0  0  0  0  0  0  0  0  0
   28.7759   10.6213   13.7726 C   0  0  1  0  0  0  0  0  0  0  0  0
   26.1410    8.1948    9.0250 O   0  0  0  0  0  0  0  0  0  0  0  0
   28.7593   11.3321   12.4151 C   0  0  0  0  0  0  0  0  0  0  0  0
   28.0043    7.4975    5.9068 O   0  0  0  0  0  0  0  0  0  0  0  0
   28.9162   10.2951   11.2995 C   0  0  1  0  0  0  0  0  0  0  0  0
   28.5487    5.1691    7.4274 O   0  0  0  0  0  0  0  0  0  0  0  0
   27.8025    9.2446   11.3425 C   0  0  2  0  0  0  0  0  0  0  0  0
   26.9487    7.4655    9.9674 C   0  0  1  0  0  0  0  0  0  0  0  0
   26.8077    8.4832    7.7796 C   0  0  2  0  0  0  0  0  0  0  0  0
   25.8669    9.2257    6.8281 C   0  0  0  0  0  0  0  0  0  0  0  0
   27.2664    7.1930    7.0944 C   0  0  2  0  0  0  0  0  0  0  0  0
   28.1709    6.4026    8.0415 C   0  0  1  0  0  0  0  0  0  0  0  0
   27.4111    6.1424    9.3449 C   0  0  1  0  0  0  0  0  0  0  0  0
  5  4  1  6  0  0  0
  5  8  1  0  0  0  0
  5 16  1  0  0  0  0
  8  7  1  1  0  0  0
  8 10  1  0  0  0  0
 10  1  1  1  0  0  0
 10 12  1  0  0  0  0
 11 18  1  0  0  0  0
 12 14  1  0  0  0  0
 14  2  1  6  0  0  0
 14 16  1  0  0  0  0
 16  9  1  6  0  0  0
 17  9  1  6  0  0  0
 17 11  1  0  0  0  0
 17 22  1  0  0  0  0
 18 19  1  6  0  0  0
 18 20  1  0  0  0  0
 19  3  1  0  0  0  0
 20 13  1  6  0  0  0
 20 21  1  0  0  0  0
 21 15  1  6  0  0  0
 21 22  1  0  0  0  0
 22  6  1  1  0  0  0
M  END
>  <CHROM.1>
77.87668322,81.73948246,58.33338770,27.65001148,8.54654127,10.32865009,0.87626204
-1.37019444,0.46647931

>  <Name>
2fcx_lig

>  <RI>
4.08374e+07

>  <Rbt.Current_Directory>
/home/itssahil/PROJECTS/Mol_Feturizer/New_Systems/rnas/2fcx

>  <Rbt.Executable>
rbdock ($Id: //depot/dev/client3/rdock/2013.1/src/exe/rbdock.cxx#4 $)

>  <Rbt.Library>
libRbt.so (2013.1, Build901 2013/11/27)

>  <Rbt.Parameter_File>
/export/apps/rDock/src/rDock_2013.1_src/data/scripts/dock_solv.prm

>  <Rbt.Receptor>
prm/pocket_docking_7.prm

>  <SCORE>
-13.2301

>  <SCORE.INTER>
-12.4255

>  <SCORE.INTER.CONST>
1

>  <SCORE.INTER.POLAR>
-2.52596

>  <SCORE.INTER.ROT>
3

>  <SCORE.INTER.SOLV>
14.0172

>  <SCORE.INTER.VDW>
-10.1362

>  <SCORE.INTER.norm>
-0.564798

>  <SCORE.INTRA>
-0.806606

>  <SCORE.INTRA.DIHEDRAL>
-1.31132

>  <SCORE.INTRA.DIHEDRAL.0>
4.88619

>  <SCORE.INTRA.POLAR>
0

>  <SCORE.INTRA.POLAR.0>
0

>  <SCORE.INTRA.REPUL>
0

>  <SCORE.INTRA.REPUL.0>
0

>  <SCORE.INTRA.SOLV>
-0.0621912

>  <SCORE.INTRA.SOLV.lig_0>
-73.8187

>  <SCORE.INTRA.VDW>
-0.119851

>  <SCORE.INTRA.VDW.0>
-1.32335

>  <SCORE.INTRA.norm>
-0.0366639

>  <SCORE.RESTR>
0.00208521

>  <SCORE.RESTR.CAVITY>
0.00208521

>  <SCORE.RESTR.norm>
9.47823e-05

>  <SCORE.SYSTEM>
0

>  <SCORE.SYSTEM.CONST>
0

>  <SCORE.SYSTEM.DIHEDRAL>
0

>  <SCORE.SYSTEM.SOLV>
0

>  <SCORE.SYSTEM.norm>
0

>  <SCORE.heavy>
22

>  <SCORE.norm>
-0.601367

>  <RMSD>
7.290

$$$$
2fcx_lig
 OpenBabel11021811433D
libRbt.so/2013.1/901 2013/11/27
 22 23  0  0  0  0  0  0  0  0999 V2000
   28.6950   12.0187   14.5052 N   0  0  0  0  0  0  0  0  0  0  0  0
   28.9783   10.8395    9.7508 N   0  0  0  0  0  0  0  0  0  0  0  0
   24.6921    8.8016    6.5926 N   0  0  0  0  0  0  0  0  0  0  0  0
   26.5395    7.9714   12.8341 O   0  0  0  0  0  0  0  0  0  0  0  0
   27.6864    8.8153   12.7006 C   0  0  2  0  0  0  0  0  0  0  0  0
   27.9579    5.3737   10.2773 N   0  0  0  0  0  0  0  0  0  0  0  0
   27.6567    9.3778   15.0331 O   0  0  0  0  0  0  0  0  0  0  0  0
   27.6194    9.9532   13.7219 C   0  0  1  0  0  0  0  0  0  0  0  0
   28.0275    8.2424   10.3582 O   0  0  0  0  0  0  0  0  0  0  0  0
   28.8030   10.9078   13.5481 C   0  0  1  0  0  0  0  0  0  0  0  0
   26.1211    8.3585    9.0003 O   0  0  0  0  0  0  0  0  0  0  0  0
   28.8348   11.4727   12.1240 C   0  0  0  0  0  0  0  0  0  0  0  0
   28.0027    7.5223    5.9275 O   0  0  0  0  0  0  0  0  0  0  0  0
   28.9493   10.3181   11.1247 C   0  0  1  0  0  0  0  0  0  0  0  0
   28.2908    5.1411    7.4366 O   0  0  0  0  0  0  0  0  0  0  0  0
   27.7835    9.3342   11.2607 C   0  0  2  0  0  0  0  0  0  0  0  0
   26.8323    7.5510    9.9566 C   0  0  1  0  0  0  0  0  0  0  0  0
   26.8467    8.5961    7.7772 C   0  0  2  0  0  0  0  0  0  0  0  0
   26.0045    9.4289    6.8082 C   0  0  0  0  0  0  0  0  0  0  0  0
   27.2066    7.2756    7.0907 C   0  0  2  0  0  0  0  0  0  0  0  0
   28.0084    6.3985    8.0537 C   0  0  1  0  0  0  0  0  0  0  0  0
   27.1911    6.1969    9.3325 C   0  0  1  0  0  0  0  0  0  0  0  0
  5  4  1  6  0  0  0
  5  8  1  0  0  0  0
  5 16  1  0  0  0  0
  8  7  1  1  0  0  0
  8 10  1  0  0  0  0
 10  1  1  1  0  0  0
 10 12  1  0  0  0  0
 11 18  1  0  0  0  0
 12 14  1  0  0  0  0
 14  2  1  6  0  0  0
 14 16  1  0  0  0  0
 16  9  1  6  0  0  0
 17  9  1  6  0  0  0
 17 11  1  0  0  0  0
 17 22  1  0  0  0  0
 18 19  1  6  0  0  0
 18 20  1  0  0  0  0
 19  3  1  0  0  0  0
 20 13  1  6  0  0  0
 20 21  1  0  0  0  0
 21 15  1  6  0  0  0
 21 22  1  0  0  0  0
 22  6  1  1  0  0  0
M  END
>  <CHROM.1>
83.99077097,75.07104288,-53.78580287,27.56953167,8.60167773,10.22458622,0.31188440
-1.40170647,-0.15033187

>  <Name>
2fcx_lig

>  <RI>
4.08374e+07

>  <Rbt.Current_Directory>
/home/itssahil/PROJECTS/Mol_Feturizer/New_Systems/rnas/2fcx

>  <Rbt.Executable>
rbdock ($Id: //depot/dev/client3/rdock/2013.1/src/exe/rbdock.cxx#4 $)

>  <Rbt.Library>
libRbt.so (2013.1, Build901 2013/11/27)

>  <Rbt.Parameter_File>
/export/apps/rDock/src/rDock_2013.1_src/data/scripts/dock_solv.prm

>  <Rbt.Receptor>
prm/pocket_docking_7.prm

>  <SCORE>
-12.2009

>  <SCORE.INTER>
-12.0336

>  <SCORE.INTER.CONST>
1

>  <SCORE.INTER.POLAR>
-2.59485

>  <SCORE.INTER.ROT>
3

>  <SCORE.INTER.SOLV>
13.1692

>  <SCORE.INTER.VDW>
-9.36263

>  <SCORE.INTER.norm>
-0.546981

>  <SCORE.INTRA>
-0.167363

>  <SCORE.INTRA.DIHEDRAL>
-1.19359

>  <SCORE.INTRA.DIHEDRAL.0>
4.88619

>  <SCORE.INTRA.POLAR>
0

>  <SCORE.INTRA.POLAR.0>
0

>  <SCORE.INTRA.REPUL>
0

>  <SCORE.INTRA.REPUL.0>
0

>  <SCORE.INTRA.SOLV>
1.48623

>  <SCORE.INTRA.SOLV.lig_0>
-73.8187

>  <SCORE.INTRA.VDW>
-0.313683

>  <SCORE.INTRA.VDW.0>
-1.32335

>  <SCORE.INTRA.norm>
-0.00760743

>  <SCORE.RESTR>
0

>  <SCORE.RESTR.CAVITY>
0

>  <SCORE.RESTR.norm>
0

>  <SCORE.SYSTEM>
0

>  <SCORE.SYSTEM.CONST>
0

>  <SCORE.SYSTEM.DIHEDRAL>
0

>  <SCORE.SYSTEM.SOLV>
0

>  <SCORE.SYSTEM.norm>
0

>  <SCORE.heavy>
22

>  <SCORE.norm>
-0.554588

>  <RMSD>
7.304

$$$$
2fcx_lig
 OpenBabel11021811433D
libRbt.so/2013.1/901 2013/11/27
 22 23  0  0  0  0  0  0  0  0999 V2000
   28.6640   11.7084   14.7349 N   0  0  0  0  0  0  0  0  0  0  0  0
   28.8601   10.7657    9.9237 N   0  0  0  0  0  0  0  0  0  0  0  0
   24.7106    8.7282    6.6839 N   0  0  0  0  0  0  0  0  0  0  0  0
   26.6417    7.6492   12.9314 O   0  0  0  0  0  0  0  0  0  0  0  0
   27.7458    8.5498   12.8073 C   0  0  2  0  0  0  0  0  0  0  0  0
   28.0272    5.2369   10.2634 N   0  0  0  0  0  0  0  0  0  0  0  0
   27.7594    9.0012   15.1641 O   0  0  0  0  0  0  0  0  0  0  0  0
   27.6584    9.6347   13.8833 C   0  0  1  0  0  0  0  0  0  0  0  0
   28.0433    8.1026   10.4319 O   0  0  0  0  0  0  0  0  0  0  0  0
   28.7931   10.6493   13.7233 C   0  0  1  0  0  0  0  0  0  0  0  0
   26.1432    8.2252    9.0658 O   0  0  0  0  0  0  0  0  0  0  0  0
   28.7582   11.2807   12.3275 C   0  0  0  0  0  0  0  0  0  0  0  0
   28.0581    7.5175    5.9813 O   0  0  0  0  0  0  0  0  0  0  0  0
   28.8943   10.1803   11.2714 C   0  0  1  0  0  0  0  0  0  0  0  0
   28.3812    5.0972    7.4192 O   0  0  0  0  0  0  0  0  0  0  0  0
   27.7777    9.1390   11.3918 C   0  0  2  0  0  0  0  0  0  0  0  0
   26.8635    7.4020   10.0017 C   0  0  1  0  0  0  0  0  0  0  0  0
   26.8715    8.5131    7.8552 C   0  0  2  0  0  0  0  0  0  0  0  0
   26.0198    9.3596    6.9065 C   0  0  0  0  0  0  0  0  0  0  0  0
   27.2598    7.2210    7.1313 C   0  0  2  0  0  0  0  0  0  0  0  0
   28.0720    6.3298    8.0724 C   0  0  1  0  0  0  0  0  0  0  0  0
   27.2509    6.0744    9.3391 C   0  0  1  0  0  0  0  0  0  0  0  0
  5  4  1  6  0  0  0
  5  8  1  0  0  0  0
  5 16  1  0  0  0  0
  8  7  1  1  0  0  0
  8 10  1  0  0  0  0
 10  1  1  1  0  0  0
 10 12  1  0  0  0  0
 11 18  1  0  0  0  0
 12 14  1  0  0  0  0
 14  2  1  6  0  0  0
 14 16  1  0  0  0  0
 16  9  1  6  0  0  0
 17  9  1  6  0  0  0
 17 11  1  0  0  0  0
 17 22  1  0  0  0  0
 18 19  1  6  0  0  0
 18 20  1  0  0  0  0
 19  3  1  0  0  0  0
 20 13  1  6  0  0  0
 20 21  1  0  0  0  0
 21 15  1  6  0  0  0
 21 22  1  0  0  0  0
 22  6  1  1  0  0  0
M  END
>  <CHROM.1>
85.65793942,76.59151597,-52.69599590,27.59494857,8.44102444,10.31890979,0.47380019
-1.39540525,0.05261555

>  <Name>
2fcx_lig

>  <RI>
4.08374e+07

>  <Rbt.Current_Directory>
/home/itssahil/PROJECTS/Mol_Feturizer/New_Systems/rnas/2fcx

>  <Rbt.Executable>
rbdock ($Id: //depot/dev/client3/rdock/2013.1/src/exe/rbdock.cxx#4 $)

>  <Rbt.Library>
libRbt.so (2013.1, Build901 2013/11/27)

>  <Rbt.Parameter_File>
/export/apps/rDock/src/rDock_2013.1_src/data/scripts/dock_solv.prm

>  <Rbt.Receptor>
prm/pocket_docking_7.prm

>  <SCORE>
-12.1206

>  <SCORE.INTER>
-12.2226

>  <SCORE.INTER.CONST>
1

>  <SCORE.INTER.POLAR>
-2.50925

>  <SCORE.INTER.ROT>
3

>  <SCORE.INTER.SOLV>
13.1149

>  <SCORE.INTER.VDW>
-9.75589

>  <SCORE.INTER.norm>
-0.555574

>  <SCORE.INTRA>
0.102032

>  <SCORE.INTRA.DIHEDRAL>
-0.628295

>  <SCORE.INTRA.DIHEDRAL.0>
4.88619

>  <SCORE.INTRA.POLAR>
0

>  <SCORE.INTRA.POLAR.0>
0

>  <SCORE.INTRA.REPUL>
0

>  <SCORE.INTRA.REPUL.0>
0

>  <SCORE.INTRA.SOLV>
1.59382

>  <SCORE.INTRA.SOLV.lig_0>
-73.8187

>  <SCORE.INTRA.VDW>
-0.380731

>  <SCORE.INTRA.VDW.0>
-1.32335

>  <SCORE.INTRA.norm>
0.00463781

>  <SCORE.RESTR>
0

>  <SCORE.RESTR.CAVITY>
0

>  <SCORE.RESTR.norm>
0

>  <SCORE.SYSTEM>
0

>  <SCORE.SYSTEM.CONST>
0

>  <SCORE.SYSTEM.DIHEDRAL>
0

>  <SCORE.SYSTEM.SOLV>
0

>  <SCORE.SYSTEM.norm>
0

>  <SCORE.heavy>
22

>  <SCORE.norm>
-0.550936

>  <RMSD>
7.306

$$$$
2fcx_lig
 OpenBabel11021811433D
libRbt.so/2013.1/901 2013/11/27
 22 23  0  0  0  0  0  0  0  0999 V2000
   25.6690    7.6519   17.3811 N   0  0  0  0  0  0  0  0  0  0  0  0
   23.9072   10.4463   13.7531 N   0  0  0  0  0  0  0  0  0  0  0  0
   23.5692   13.5373   11.0770 N   0  0  0  0  0  0  0  0  0  0  0  0
   28.0946    8.0382   13.1638 O   0  0  0  0  0  0  0  0  0  0  0  0
   27.2923    8.7491   14.1106 C   0  0  2  0  0  0  0  0  0  0  0  0
   28.0230    8.8342   10.5630 N   0  0  0  0  0  0  0  0  0  0  0  0
   28.1666    7.4734   15.9454 O   0  0  0  0  0  0  0  0  0  0  0  0
   26.9459    7.8377   15.2903 C   0  0  1  0  0  0  0  0  0  0  0  0
   26.4118   10.2886   12.4416 O   0  0  0  0  0  0  0  0  0  0  0  0
   26.0288    8.5586   16.2811 C   0  0  1  0  0  0  0  0  0  0  0  0
   25.0383   11.0665   10.7095 O   0  0  0  0  0  0  0  0  0  0  0  0
   24.7501    9.0343   15.5833 C   0  0  0  0  0  0  0  0  0  0  0  0
   27.5254   13.5578    9.5742 O   0  0  0  0  0  0  0  0  0  0  0  0
   25.1214    9.9805   14.4380 C   0  0  1  0  0  0  0  0  0  0  0  0
   28.8843   11.1241    9.0635 O   0  0  0  0  0  0  0  0  0  0  0  0
   26.0404    9.3015   13.4182 C   0  0  2  0  0  0  0  0  0  0  0  0
   25.9183   10.0042   11.1212 C   0  0  1  0  0  0  0  0  0  0  0  0
   25.6807   12.3528   10.6015 C   0  0  2  0  0  0  0  0  0  0  0  0
   24.6832   13.4111   10.1254 C   0  0  0  0  0  0  0  0  0  0  0  0
   26.8415   12.3013    9.6044 C   0  0  2  0  0  0  0  0  0  0  0  0
   27.8332   11.2161   10.0269 C   0  0  1  0  0  0  0  0  0  0  0  0
   27.0875    9.8834   10.1362 C   0  0  1  0  0  0  0  0  0  0  0  0
  5  4  1  6  0  0  0
  5  8  1  0  0  0  0
  5 16  1  0  0  0  0
  8  7  1  1  0  0  0
  8 10  1  0  0  0  0
 10  1  1  1  0  0  0
 10 12  1  0  0  0  0
 11 18  1  0  0  0  0
 12 14  1  0  0  0  0
 14  2  1  6  0  0  0
 14 16  1  0  0  0  0
 16  9  1  6  0  0  0
 17  9  1  1  0  0  0
 17 11  1  0  0  0  0
 17 22  1  0  0  0  0
 18 19  1  6  0  0  0
 18 20  1  0  0  0  0
 19  3  1  0  0  0  0
 20 13  1  1  0  0  0
 20 21  1  0  0  0  0
 21 15  1  6  0  0  0
 21 22  1  0  0  0  0
 22  6  1  1  0  0  0
M  END
>  <CHROM.1>
124.39154246,118.44393584,60.44765272,26.37590343,10.21938659,12.44694175
1.58082888,-0.55788241,2.18597372

>  <Name>
2fcx_lig

>  <RI>
1.15031e+07

>  <Rbt.Current_Directory>
/home/itssahil/PROJECTS/Mol_Feturizer/New_Systems/rnas/2fcx

>  <Rbt.Executable>
rbdock ($Id: //depot/dev/client3/rdock/2013.1/src/exe/rbdock.cxx#4 $)

>  <Rbt.Library>
libRbt.so (2013.1, Build901 2013/11/27)

>  <Rbt.Parameter_File>
/export/apps/rDock/src/rDock_2013.1_src/data/scripts/dock_solv.prm

>  <Rbt.Receptor>
prm/pocket_docking_8.prm

>  <SCORE>
-11.5472

>  <SCORE.INTER>
-16.5373

>  <SCORE.INTER.CONST>
1

>  <SCORE.INTER.POLAR>
-2.82486

>  <SCORE.INTER.ROT>
3

>  <SCORE.INTER.SOLV>
14.2929

>  <SCORE.INTER.VDW>
-11.9729

>  <SCORE.INTER.norm>
-0.751694

>  <SCORE.INTRA>
4.99005

>  <SCORE.INTRA.DIHEDRAL>
9.41241

>  <SCORE.INTRA.DIHEDRAL.0>
4.88619

>  <SCORE.INTRA.POLAR>
0

>  <SCORE.INTRA.POLAR.0>
0

>  <SCORE.INTRA.REPUL>
0

>  <SCORE.INTRA.REPUL.0>
0

>  <SCORE.INTRA.SOLV>
2.02217

>  <SCORE.INTRA.SOLV.lig_0>
-73.8187

>  <SCORE.INTRA.VDW>
-0.727238

>  <SCORE.INTRA.VDW.0>
-1.32335

>  <SCORE.INTRA.norm>
0.226821

>  <SCORE.RESTR>
0

>  <SCORE.RESTR.CAVITY>
0

>  <SCORE.RESTR.norm>
0

>  <SCORE.SYSTEM>
0

>  <SCORE.SYSTEM.CONST>
0

>  <SCORE.SYSTEM.DIHEDRAL>
0

>  <SCORE.SYSTEM.SOLV>
0

>  <SCORE.SYSTEM.norm>
0

>  <SCORE.heavy>
22

>  <SCORE.norm>
-0.524873

>  <RMSD>
7.307

$$$$
2fcx_lig
 OpenBabel11021811433D
libRbt.so/2013.1/901 2013/11/27
 22 23  0  0  0  0  0  0  0  0999 V2000
   28.6054   11.4994   14.9076 N   0  0  0  0  0  0  0  0  0  0  0  0
   28.9118   11.0295   10.0332 N   0  0  0  0  0  0  0  0  0  0  0  0
   25.3273   10.6853    7.5823 N   0  0  0  0  0  0  0  0  0  0  0  0
   26.6571    7.6213   12.6753 O   0  0  0  0  0  0  0  0  0  0  0  0
   27.7558    8.5369   12.6633 C   0  0  2  0  0  0  0  0  0  0  0  0
   28.3513    5.4757   10.0053 N   0  0  0  0  0  0  0  0  0  0  0  0
   27.7154    8.7575   15.0525 O   0  0  0  0  0  0  0  0  0  0  0  0
   27.6362    9.5117   13.8372 C   0  0  1  0  0  0  0  0  0  0  0  0
   28.1075    8.3243   10.2629 O   0  0  0  0  0  0  0  0  0  0  0  0
   28.7651   10.5444   13.8013 C   0  0  1  0  0  0  0  0  0  0  0  0
   26.1342    8.3014    8.9990 O   0  0  0  0  0  0  0  0  0  0  0  0
   28.7544   11.3080   12.4727 C   0  0  0  0  0  0  0  0  0  0  0  0
   27.9400    7.8617    5.8010 O   0  0  0  0  0  0  0  0  0  0  0  0
   28.9225   10.3163   11.3182 C   0  0  1  0  0  0  0  0  0  0  0  0
   28.5649    5.4459    7.1439 O   0  0  0  0  0  0  0  0  0  0  0  0
   27.8126    9.2609   11.3126 C   0  0  2  0  0  0  0  0  0  0  0  0
   26.9774    7.5262    9.8710 C   0  0  1  0  0  0  0  0  0  0  0  0
   26.7667    8.6895    7.7628 C   0  0  2  0  0  0  0  0  0  0  0  0
   25.7900    9.4758    6.8856 C   0  0  0  0  0  0  0  0  0  0  0  0
   27.2354    7.4600    6.9799 C   0  0  2  0  0  0  0  0  0  0  0  0
   28.1766    6.6256    7.8503 C   0  0  1  0  0  0  0  0  0  0  0  0
   27.4518    6.2596    9.1482 C   0  0  1  0  0  0  0  0  0  0  0  0
  5  4  1  6  0  0  0
  5  8  1  0  0  0  0
  5 16  1  0  0  0  0
  8  7  1  1  0  0  0
  8 10  1  0  0  0  0
 10  1  1  1  0  0  0
 10 12  1  0  0  0  0
 11 18  1  0  0  0  0
 12 14  1  0  0  0  0
 14  2  1  6  0  0  0
 14 16  1  0  0  0  0
 16  9  1  6  0  0  0
 17  9  1  6  0  0  0
 17 11  1  0  0  0  0
 17 22  1  0  0  0  0
 18 19  1  6  0  0  0
 18 20  1  0  0  0  0
 19  3  1  0  0  0  0
 20 13  1  6  0  0  0
 20 21  1  0  0  0  0
 21 15  1  6  0  0  0
 21 22  1  0  0  0  0
 22  6  1  1  0  0  0
M  END
>  <CHROM.1>
77.37292038,79.42046733,59.43332911,27.64442380,8.62975521,10.27246298,0.93623094
-1.35417811,0.57337680

>  <Name>
2fcx_lig

>  <RI>
1.15031e+07

>  <Rbt.Current_Directory>
/home/itssahil/PROJECTS/Mol_Feturizer/New_Systems/rnas/2fcx

>  <Rbt.Executable>
rbdock ($Id: //depot/dev/client3/rdock/2013.1/src/exe/rbdock.cxx#4 $)

>  <Rbt.Library>
libRbt.so (2013.1, Build901 2013/11/27)

>  <Rbt.Parameter_File>
/export/apps/rDock/src/rDock_2013.1_src/data/scripts/dock_solv.prm

>  <Rbt.Receptor>
prm/pocket_docking_8.prm

>  <SCORE>
-13.8242

>  <SCORE.INTER>
-12.7713

>  <SCORE.INTER.CONST>
1

>  <SCORE.INTER.POLAR>
-2.522

>  <SCORE.INTER.ROT>
3

>  <SCORE.INTER.SOLV>
13.7142

>  <SCORE.INTER.VDW>
-10.2789

>  <SCORE.INTER.norm>
-0.580512

>  <SCORE.INTRA>
-1.05341

>  <SCORE.INTRA.DIHEDRAL>
-1.78111

>  <SCORE.INTRA.DIHEDRAL.0>
4.88619

>  <SCORE.INTRA.POLAR>
0

>  <SCORE.INTRA.POLAR.0>
0

>  <SCORE.INTRA.REPUL>
0

>  <SCORE.INTRA.REPUL.0>
0

>  <SCORE.INTRA.SOLV>
-0.150701

>  <SCORE.INTRA.SOLV.lig_0>
-73.8187

>  <SCORE.INTRA.VDW>
-0.0875071

>  <SCORE.INTRA.VDW.0>
-1.32335

>  <SCORE.INTRA.norm>
-0.0478823

>  <SCORE.RESTR>
0.000517913

>  <SCORE.RESTR.CAVITY>
0.000517913

>  <SCORE.RESTR.norm>
2.35415e-05

>  <SCORE.SYSTEM>
0

>  <SCORE.SYSTEM.CONST>
0

>  <SCORE.SYSTEM.DIHEDRAL>
0

>  <SCORE.SYSTEM.SOLV>
0

>  <SCORE.SYSTEM.norm>
0

>  <SCORE.heavy>
22

>  <SCORE.norm>
-0.628371

>  <RMSD>
7.351

$$$$
2fcx_lig
 OpenBabel11021811433D
libRbt.so/2013.1/901 2013/11/27
 22 23  0  0  0  0  0  0  0  0999 V2000
   28.4310   11.4390   14.9098 N   0  0  0  0  0  0  0  0  0  0  0  0
   28.8184   10.9382   10.0442 N   0  0  0  0  0  0  0  0  0  0  0  0
   25.0160   10.4590    7.8291 N   0  0  0  0  0  0  0  0  0  0  0  0
   26.6227    7.4900   12.6840 O   0  0  0  0  0  0  0  0  0  0  0  0
   27.6955    8.4358   12.6794 C   0  0  2  0  0  0  0  0  0  0  0  0
   28.5374    5.4035    9.9105 N   0  0  0  0  0  0  0  0  0  0  0  0
   27.6156    8.6746   15.0658 O   0  0  0  0  0  0  0  0  0  0  0  0
   27.5325    9.4164   13.8431 C   0  0  1  0  0  0  0  0  0  0  0  0
   28.0866    8.2136   10.2859 O   0  0  0  0  0  0  0  0  0  0  0  0
   28.6326   10.4799   13.8139 C   0  0  1  0  0  0  0  0  0  0  0  0
   26.0516    8.0734    9.1322 O   0  0  0  0  0  0  0  0  0  0  0  0
   28.6193   11.2321   12.4789 C   0  0  0  0  0  0  0  0  0  0  0  0
   27.6990    7.8839    5.8259 O   0  0  0  0  0  0  0  0  0  0  0  0
   28.8310   10.2360   11.3353 C   0  0  1  0  0  0  0  0  0  0  0  0
   28.5874    5.4837    7.0425 O   0  0  0  0  0  0  0  0  0  0  0  0
   27.7511    9.1501   11.3234 C   0  0  2  0  0  0  0  0  0  0  0  0
   27.0017    7.3405    9.9274 C   0  0  1  0  0  0  0  0  0  0  0  0
   26.5795    8.5509    7.8783 C   0  0  2  0  0  0  0  0  0  0  0  0
   25.4954    9.2843    7.0855 C   0  0  0  0  0  0  0  0  0  0  0  0
   27.0971    7.3889    7.0261 C   0  0  2  0  0  0  0  0  0  0  0  0
   28.1493    6.6049    7.8121 C   0  0  1  0  0  0  0  0  0  0  0  0
   27.5314    6.1401    9.1335 C   0  0  1  0  0  0  0  0  0  0  0  0
  5  4  1  6  0  0  0
  5  8  1  0  0  0  0
  5 16  1  0  0  0  0
  8  7  1  1  0  0  0
  8 10  1  0  0  0  0
 10  1  1  1  0  0  0
 10 12  1  0  0  0  0
 11 18  1  0  0  0  0
 12 14  1  0  0  0  0
 14  2  1  6  0  0  0
 14 16  1  0  0  0  0
 16  9  1  6  0  0  0
 17  9  1  6  0  0  0
 17 11  1  0  0  0  0
 17 22  1  0  0  0  0
 18 19  1  6  0  0  0
 18 20  1  0  0  0  0
 19  3  1  0  0  0  0
 20 13  1  6  0  0  0
 20 21  1  0  0  0  0
 21 15  1  6  0  0  0
 21 22  1  0  0  0  0
 22  6  1  1  0  0  0
M  END
>  <CHROM.1>
74.72625401,75.47008486,61.55752563,27.55443213,8.53048762,10.30403814,1.11189955
-1.28761912,0.74516971

>  <Name>
2fcx_lig

>  <RI>
1.15031e+07

>  <Rbt.Current_Directory>
/home/itssahil/PROJECTS/Mol_Feturizer/New_Systems/rnas/2fcx

>  <Rbt.Executable>
rbdock ($Id: //depot/dev/client3/rdock/2013.1/src/exe/rbdock.cxx#4 $)

>  <Rbt.Library>
libRbt.so (2013.1, Build901 2013/11/27)

>  <Rbt.Parameter_File>
/export/apps/rDock/src/rDock_2013.1_src/data/scripts/dock_solv.prm

>  <Rbt.Receptor>
prm/pocket_docking_8.prm

>  <SCORE>
-13.9168

>  <SCORE.INTER>
-12.3884

>  <SCORE.INTER.CONST>
1

>  <SCORE.INTER.POLAR>
-2.55081

>  <SCORE.INTER.ROT>
3

>  <SCORE.INTER.SOLV>
13.7456

>  <SCORE.INTER.VDW>
-9.93807

>  <SCORE.INTER.norm>
-0.563109

>  <SCORE.INTRA>
-1.52922

>  <SCORE.INTRA.DIHEDRAL>
-2.73409

>  <SCORE.INTRA.DIHEDRAL.0>
4.88619

>  <SCORE.INTRA.POLAR>
0

>  <SCORE.INTRA.POLAR.0>
0

>  <SCORE.INTRA.REPUL>
0

>  <SCORE.INTRA.REPUL.0>
0

>  <SCORE.INTRA.SOLV>
-0.43356

>  <SCORE.INTRA.SOLV.lig_0>
-73.8187

>  <SCORE.INTRA.VDW>
0.0546061

>  <SCORE.INTRA.VDW.0>
-1.32335

>  <SCORE.INTRA.norm>
-0.06951

>  <SCORE.RESTR>
0.000841882

>  <SCORE.RESTR.CAVITY>
0.000841882

>  <SCORE.RESTR.norm>
3.82674e-05

>  <SCORE.SYSTEM>
0

>  <SCORE.SYSTEM.CONST>
0

>  <SCORE.SYSTEM.DIHEDRAL>
0

>  <SCORE.SYSTEM.SOLV>
0

>  <SCORE.SYSTEM.norm>
0

>  <SCORE.heavy>
22

>  <SCORE.norm>
-0.63258

>  <RMSD>
7.355

$$$$
2fcx_lig
 OpenBabel11021811433D
libRbt.so/2013.1/901 2013/11/27
 22 23  0  0  0  0  0  0  0  0999 V2000
   28.7233   11.3981   14.9700 N   0  0  0  0  0  0  0  0  0  0  0  0
   28.9748   11.0646   10.0812 N   0  0  0  0  0  0  0  0  0  0  0  0
   25.3620   10.7310    7.5987 N   0  0  0  0  0  0  0  0  0  0  0  0
   26.7379    7.5902   12.6512 O   0  0  0  0  0  0  0  0  0  0  0  0
   27.8394    8.5025   12.6528 C   0  0  2  0  0  0  0  0  0  0  0  0
   28.4035    5.5094    9.9656 N   0  0  0  0  0  0  0  0  0  0  0  0
   27.8259    8.6559   15.0475 O   0  0  0  0  0  0  0  0  0  0  0  0
   27.7359    9.4442   13.8549 C   0  0  1  0  0  0  0  0  0  0  0  0
   28.1641    8.3565   10.2436 O   0  0  0  0  0  0  0  0  0  0  0  0
   28.8678   10.4741   13.8355 C   0  0  1  0  0  0  0  0  0  0  0  0
   26.1843    8.3442    8.9898 O   0  0  0  0  0  0  0  0  0  0  0  0
   28.8450   11.2749   12.5292 C   0  0  0  0  0  0  0  0  0  0  0  0
   27.9732    7.9241    5.7797 O   0  0  0  0  0  0  0  0  0  0  0  0
   28.9972   10.3155   11.3455 C   0  0  1  0  0  0  0  0  0  0  0  0
   28.6024    5.4986    7.1030 O   0  0  0  0  0  0  0  0  0  0  0  0
   27.8838    9.2640   11.3224 C   0  0  2  0  0  0  0  0  0  0  0  0
   27.0311    7.5622    9.8522 C   0  0  1  0  0  0  0  0  0  0  0  0
   26.8109    8.7399    7.7530 C   0  0  2  0  0  0  0  0  0  0  0  0
   25.8306    9.5331    6.8860 C   0  0  0  0  0  0  0  0  0  0  0  0
   27.2743    7.5152    6.9594 C   0  0  2  0  0  0  0  0  0  0  0  0
   28.2190    6.6739    7.8193 C   0  0  1  0  0  0  0  0  0  0  0  0
   27.5005    6.3000    9.1185 C   0  0  1  0  0  0  0  0  0  0  0  0
  5  4  1  6  0  0  0
  5  8  1  0  0  0  0
  5 16  1  0  0  0  0
  8  7  1  1  0  0  0
  8 10  1  0  0  0  0
 10  1  1  1  0  0  0
 10 12  1  0  0  0  0
 11 18  1  0  0  0  0
 12 14  1  0  0  0  0
 14  2  1  6  0  0  0
 14 16  1  0  0  0  0
 16  9  1  6  0  0  0
 17  9  1  6  0  0  0
 17 11  1  0  0  0  0
 17 22  1  0  0  0  0
 18 19  1  6  0  0  0
 18 20  1  0  0  0  0
 19  3  1  0  0  0  0
 20 13  1  6  0  0  0
 20 21  1  0  0  0  0
 21 15  1  6  0  0  0
 21 22  1  0  0  0  0
 22  6  1  1  0  0  0
M  END
>  <CHROM.1>
76.69948504,80.80821727,58.84409526,27.70914520,8.63693734,10.27147542,0.90297899
-1.34641604,0.56161296

>  <Name>
2fcx_lig

>  <RI>
1.15031e+07

>  <Rbt.Current_Directory>
/home/itssahil/PROJECTS/Mol_Feturizer/New_Systems/rnas/2fcx

>  <Rbt.Executable>
rbdock ($Id: //depot/dev/client3/rdock/2013.1/src/exe/rbdock.cxx#4 $)

>  <Rbt.Library>
libRbt.so (2013.1, Build901 2013/11/27)

>  <Rbt.Parameter_File>
/export/apps/rDock/src/rDock_2013.1_src/data/scripts/dock_solv.prm

>  <Rbt.Receptor>
prm/pocket_docking_8.prm

>  <SCORE>
-13.9882

>  <SCORE.INTER>
-13.0207

>  <SCORE.INTER.CONST>
1

>  <SCORE.INTER.POLAR>
-2.48183

>  <SCORE.INTER.ROT>
3

>  <SCORE.INTER.SOLV>
13.9079

>  <SCORE.INTER.VDW>
-10.6436

>  <SCORE.INTER.norm>
-0.591848

>  <SCORE.INTRA>
-0.970977

>  <SCORE.INTRA.DIHEDRAL>
-1.64873

>  <SCORE.INTRA.DIHEDRAL.0>
4.88619

>  <SCORE.INTRA.POLAR>
0

>  <SCORE.INTRA.POLAR.0>
0

>  <SCORE.INTRA.REPUL>
0

>  <SCORE.INTRA.REPUL.0>
0

>  <SCORE.INTRA.SOLV>
-0.181837

>  <SCORE.INTRA.SOLV.lig_0>
-73.8187

>  <SCORE.INTRA.VDW>
-0.0556938

>  <SCORE.INTRA.VDW.0>
-1.32335

>  <SCORE.INTRA.norm>
-0.0441353

>  <SCORE.RESTR>
0.00340141

>  <SCORE.RESTR.CAVITY>
0.00340141

>  <SCORE.RESTR.norm>
0.000154609

>  <SCORE.SYSTEM>
0

>  <SCORE.SYSTEM.CONST>
0

>  <SCORE.SYSTEM.DIHEDRAL>
0

>  <SCORE.SYSTEM.SOLV>
0

>  <SCORE.SYSTEM.norm>
0

>  <SCORE.heavy>
22

>  <SCORE.norm>
-0.635829

>  <RMSD>
7.355

$$$$
2fcx_lig
 OpenBabel11021811433D
libRbt.so/2013.1/901 2013/11/27
 22 23  0  0  0  0  0  0  0  0999 V2000
   25.3405    7.8838   17.2174 N   0  0  0  0  0  0  0  0  0  0  0  0
   23.9969   10.0830   13.0421 N   0  0  0  0  0  0  0  0  0  0  0  0
   25.4741   14.8779   10.8547 N   0  0  0  0  0  0  0  0  0  0  0  0
   28.4593    8.1913   13.4762 O   0  0  0  0  0  0  0  0  0  0  0  0
   27.4199    8.8766   14.1801 C   0  0  2  0  0  0  0  0  0  0  0  0
   27.8712    8.8450    9.9310 N   0  0  0  0  0  0  0  0  0  0  0  0
   28.0679    7.8980   16.2731 O   0  0  0  0  0  0  0  0  0  0  0  0
   26.9599    8.0401   15.3764 C   0  0  1  0  0  0  0  0  0  0  0  0
   26.7055   10.1300   12.2180 O   0  0  0  0  0  0  0  0  0  0  0  0
   25.7991    8.7246   16.1019 C   0  0  1  0  0  0  0  0  0  0  0  0
   25.1092   11.1745   10.8570 O   0  0  0  0  0  0  0  0  0  0  0  0
   24.6302    8.9654   15.1406 C   0  0  0  0  0  0  0  0  0  0  0  0
   27.5227   13.6716    9.5837 O   0  0  0  0  0  0  0  0  0  0  0  0
   25.1041    9.8425   13.9783 C   0  0  1  0  0  0  0  0  0  0  0  0
   28.6108   11.2599    8.5689 O   0  0  0  0  0  0  0  0  0  0  0  0
   26.2678    9.1970   13.2200 C   0  0  2  0  0  0  0  0  0  0  0  0
   25.9751   10.0315   10.9833 C   0  0  1  0  0  0  0  0  0  0  0  0
   25.8066   12.4342   10.7814 C   0  0  2  0  0  0  0  0  0  0  0  0
   24.8138   13.5865   10.6127 C   0  0  0  0  0  0  0  0  0  0  0  0
   26.7730   12.4528    9.5940 C   0  0  2  0  0  0  0  0  0  0  0  0
   27.7490   11.2806    9.7084 C   0  0  1  0  0  0  0  0  0  0  0  0
   26.9473    9.9795    9.7984 C   0  0  1  0  0  0  0  0  0  0  0  0
  5  4  1  6  0  0  0
  5  8  1  0  0  0  0
  5 16  1  0  0  0  0
  8  7  1  1  0  0  0
  8 10  1  0  0  0  0
 10  1  1  1  0  0  0
 10 12  1  0  0  0  0
 11 18  1  0  0  0  0
 12 14  1  0  0  0  0
 14  2  1  6  0  0  0
 14 16  1  0  0  0  0
 16  9  1  6  0  0  0
 17  9  1  1  0  0  0
 17 11  1  0  0  0  0
 17 22  1  0  0  0  0
 18 19  1  6  0  0  0
 18 20  1  0  0  0  0
 19  3  1  0  0  0  0
 20 13  1  1  0  0  0
 20 21  1  0  0  0  0
 21 15  1  6  0  0  0
 21 22  1  0  0  0  0
 22  6  1  1  0  0  0
M  END
>  <CHROM.1>
153.07519723,107.66511048,166.52329465,26.46352287,10.34760869,12.32016718
1.63198921,-0.68026985,2.22923999

>  <Name>
2fcx_lig

>  <RI>
1.15031e+07

>  <Rbt.Current_Directory>
/home/itssahil/PROJECTS/Mol_Feturizer/New_Systems/rnas/2fcx

>  <Rbt.Executable>
rbdock ($Id: //depot/dev/client3/rdock/2013.1/src/exe/rbdock.cxx#4 $)

>  <Rbt.Library>
libRbt.so (2013.1, Build901 2013/11/27)

>  <Rbt.Parameter_File>
/export/apps/rDock/src/rDock_2013.1_src/data/scripts/dock_solv.prm

>  <Rbt.Receptor>
prm/pocket_docking_8.prm

>  <SCORE>
-11.076

>  <SCORE.INTER>
-15.0461

>  <SCORE.INTER.CONST>
1

>  <SCORE.INTER.POLAR>
-2.73602

>  <SCORE.INTER.ROT>
3

>  <SCORE.INTER.SOLV>
13.574

>  <SCORE.INTER.VDW>
-11.0354

>  <SCORE.INTER.norm>
-0.683914

>  <SCORE.INTRA>
3.97011

>  <SCORE.INTRA.DIHEDRAL>
5.25283

>  <SCORE.INTRA.DIHEDRAL.0>
4.88619

>  <SCORE.INTRA.POLAR>
0

>  <SCORE.INTRA.POLAR.0>
0

>  <SCORE.INTRA.REPUL>
0

>  <SCORE.INTRA.REPUL.0>
0

>  <SCORE.INTRA.SOLV>
2.76248

>  <SCORE.INTRA.SOLV.lig_0>
-73.8187

>  <SCORE.INTRA.VDW>
-0.0375426

>  <SCORE.INTRA.VDW.0>
-1.32335

>  <SCORE.INTRA.norm>
0.18046

>  <SCORE.RESTR>
0

>  <SCORE.RESTR.CAVITY>
0

>  <SCORE.RESTR.norm>
0

>  <SCORE.SYSTEM>
0

>  <SCORE.SYSTEM.CONST>
0

>  <SCORE.SYSTEM.DIHEDRAL>
0

>  <SCORE.SYSTEM.SOLV>
0

>  <SCORE.SYSTEM.norm>
0

>  <SCORE.heavy>
22

>  <SCORE.norm>
-0.503454

>  <RMSD>
7.361

$$$$
2fcx_lig
 OpenBabel11021811433D
libRbt.so/2013.1/901 2013/11/27
 22 23  0  0  0  0  0  0  0  0999 V2000
   27.7376    7.8638   15.6490 N   0  0  0  0  0  0  0  0  0  0  0  0
   25.2903    8.1441   11.4056 N   0  0  0  0  0  0  0  0  0  0  0  0
   27.5947    5.9722    8.3640 N   0  0  0  0  0  0  0  0  0  0  0  0
   29.8070    9.9241   11.7385 O   0  0  0  0  0  0  0  0  0  0  0  0
   28.5756    9.7539   12.4458 C   0  0  2  0  0  0  0  0  0  0  0  0
   27.7224   12.4579    9.0740 N   0  0  0  0  0  0  0  0  0  0  0  0
   29.6980    9.6843   14.5656 O   0  0  0  0  0  0  0  0  0  0  0  0
   28.8133    8.9400   13.7199 C   0  0  1  0  0  0  0  0  0  0  0  0
   27.2129    9.9854   10.4407 O   0  0  0  0  0  0  0  0  0  0  0  0
   27.4950    8.6868   14.4551 C   0  0  1  0  0  0  0  0  0  0  0  0
   28.3681    8.7955    8.7849 O   0  0  0  0  0  0  0  0  0  0  0  0
   26.4987    7.9653   13.5413 C   0  0  0  0  0  0  0  0  0  0  0  0
   25.5828    9.0493    6.3643 O   0  0  0  0  0  0  0  0  0  0  0  0
   26.2424    8.8209   12.2975 C   0  0  1  0  0  0  0  0  0  0  0  0
   26.3246   11.7677    6.6648 O   0  0  0  0  0  0  0  0  0  0  0  0
   27.5359    9.1010   11.5268 C   0  0  2  0  0  0  0  0  0  0  0  0
   28.2447   10.0701    9.4427 C   0  0  1  0  0  0  0  0  0  0  0  0
   27.1852    8.3873    8.0686 C   0  0  2  0  0  0  0  0  0  0  0  0
   27.4173    7.0442    7.3731 C   0  0  0  0  0  0  0  0  0  0  0  0
   26.8068    9.4218    7.0052 C   0  0  2  0  0  0  0  0  0  0  0  0
   26.6160   10.7890    7.6641 C   0  0  1  0  0  0  0  0  0  0  0  0
   27.8979   11.1558    8.4167 C   0  0  1  0  0  0  0  0  0  0  0  0
  5  4  1  6  0  0  0
  5  8  1  0  0  0  0
  5 16  1  0  0  0  0
  8  7  1  1  0  0  0
  8 10  1  0  0  0  0
 10  1  1  1  0  0  0
 10 12  1  0  0  0  0
 11 18  1  0  0  0  0
 12 14  1  0  0  0  0
 14  2  1  6  0  0  0
 14 16  1  0  0  0  0
 16  9  1  6  0  0  0
 17  9  1  1  0  0  0
 17 11  1  0  0  0  0
 17 22  1  0  0  0  0
 18 19  1  6  0  0  0
 18 20  1  0  0  0  0
 19  3  1  0  0  0  0
 20 13  1  1  0  0  0
 20 21  1  0  0  0  0
 21 15  1  6  0  0  0
 21 22  1  0  0  0  0
 22  6  1  1  0  0  0
M  END
>  <CHROM.1>
74.31681779,66.24266267,66.44642930,27.49640171,9.27787687,10.38140426,1.06149762
1.18033325,2.18194820

>  <Name>
2fcx_lig

>  <RI>
4.08374e+07

>  <Rbt.Current_Directory>
/home/itssahil/PROJECTS/Mol_Feturizer/New_Systems/rnas/2fcx

>  <Rbt.Executable>
rbdock ($Id: //depot/dev/client3/rdock/2013.1/src/exe/rbdock.cxx#4 $)

>  <Rbt.Library>
libRbt.so (2013.1, Build901 2013/11/27)

>  <Rbt.Parameter_File>
/export/apps/rDock/src/rDock_2013.1_src/data/scripts/dock_solv.prm

>  <Rbt.Receptor>
prm/pocket_docking_7.prm

>  <SCORE>
-12.8945

>  <SCORE.INTER>
-10.8589

>  <SCORE.INTER.CONST>
1

>  <SCORE.INTER.POLAR>
-1.39699

>  <SCORE.INTER.ROT>
3

>  <SCORE.INTER.SOLV>
11.1431

>  <SCORE.INTER.VDW>
-11.897

>  <SCORE.INTER.norm>
-0.493588

>  <SCORE.INTRA>
-2.03759

>  <SCORE.INTRA.DIHEDRAL>
-3.57689

>  <SCORE.INTRA.DIHEDRAL.0>
4.88619

>  <SCORE.INTRA.POLAR>
0

>  <SCORE.INTRA.POLAR.0>
0

>  <SCORE.INTRA.REPUL>
0

>  <SCORE.INTRA.REPUL.0>
0

>  <SCORE.INTRA.SOLV>
-0.608021

>  <SCORE.INTRA.SOLV.lig_0>
-73.8187

>  <SCORE.INTRA.VDW>
0.0548678

>  <SCORE.INTRA.VDW.0>
-1.32335

>  <SCORE.INTRA.norm>
-0.0926177

>  <SCORE.RESTR>
0.00203638

>  <SCORE.RESTR.CAVITY>
0.00203638

>  <SCORE.RESTR.norm>
9.25628e-05

>  <SCORE.SYSTEM>
0

>  <SCORE.SYSTEM.CONST>
0

>  <SCORE.SYSTEM.DIHEDRAL>
0

>  <SCORE.SYSTEM.SOLV>
0

>  <SCORE.SYSTEM.norm>
0

>  <SCORE.heavy>
22

>  <SCORE.norm>
-0.586113

>  <RMSD>
7.383

$$$$
2fcx_lig
 OpenBabel11021811433D
libRbt.so/2013.1/901 2013/11/27
 22 23  0  0  0  0  0  0  0  0999 V2000
   28.8897   12.1107    9.7093 N   0  0  0  0  0  0  0  0  0  0  0  0
   29.0308   16.1515   12.4889 N   0  0  0  0  0  0  0  0  0  0  0  0
   33.3516   17.9513   13.9262 N   0  0  0  0  0  0  0  0  0  0  0  0
   30.7992   11.9525   14.1979 O   0  0  0  0  0  0  0  0  0  0  0  0
   29.7665   12.5316   13.3957 C   0  0  2  0  0  0  0  0  0  0  0  0
   29.1259   14.5193   17.5710 N   0  0  0  0  0  0  0  0  0  0  0  0
   29.5877   10.5591   12.0410 O   0  0  0  0  0  0  0  0  0  0  0  0
   29.8320   11.9690   11.9739 C   0  0  1  0  0  0  0  0  0  0  0  0
   29.6377   14.5539   14.7466 O   0  0  0  0  0  0  0  0  0  0  0  0
   28.7789   12.6289   11.0807 C   0  0  1  0  0  0  0  0  0  0  0  0
   31.9427   14.7226   15.1343 O   0  0  0  0  0  0  0  0  0  0  0  0
   28.9669   14.1496   11.0600 C   0  0  0  0  0  0  0  0  0  0  0  0
   31.7413   18.3051   16.0327 O   0  0  0  0  0  0  0  0  0  0  0  0
   28.8503   14.6929   12.4868 C   0  0  1  0  0  0  0  0  0  0  0  0
   30.2315   17.1114   18.1126 O   0  0  0  0  0  0  0  0  0  0  0  0
   29.8871   14.0603   13.4198 C   0  0  2  0  0  0  0  0  0  0  0  0
   30.6931   14.2580   15.6773 C   0  0  1  0  0  0  0  0  0  0  0  0
   32.0036   16.1499   14.9387 C   0  0  2  0  0  0  0  0  0  0  0  0
   33.3745   16.5577   14.3947 C   0  0  0  0  0  0  0  0  0  0  0  0
   31.7678   16.8921   16.2570 C   0  0  2  0  0  0  0  0  0  0  0  0
   30.4241   16.4672   16.8518 C   0  0  1  0  0  0  0  0  0  0  0  0
   30.4196   14.9456   17.0205 C   0  0  1  0  0  0  0  0  0  0  0  0
  5  4  1  1  0  0  0
  5  8  1  0  0  0  0
  5 16  1  0  0  0  0
  8  7  1  1  0  0  0
  8 10  1  0  0  0  0
 10  1  1  6  0  0  0
 10 12  1  0  0  0  0
 11 18  1  0  0  0  0
 12 14  1  0  0  0  0
 14  2  1  6  0  0  0
 14 16  1  0  0  0  0
 16  9  1  1  0  0  0
 17  9  1  6  0  0  0
 17 11  1  0  0  0  0
 17 22  1  0  0  0  0
 18 19  1  1  0  0  0
 18 20  1  0  0  0  0
 19  3  1  0  0  0  0
 20 13  1  6  0  0  0
 20 21  1  0  0  0  0
 21 15  1  1  0  0  0
 21 22  1  0  0  0  0
 22  6  1  6  0  0  0
M  END
>  <CHROM.1>
71.41939304,53.26144571,167.95584916,30.42866288,14.69413212,14.23412963
-2.26417345,1.06344366,1.44243397

>  <Name>
2fcx_lig

>  <RI>
4.08374e+07

>  <Rbt.Current_Directory>
/home/itssahil/PROJECTS/Mol_Feturizer/New_Systems/rnas/2fcx

>  <Rbt.Executable>
rbdock ($Id: //depot/dev/client3/rdock/2013.1/src/exe/rbdock.cxx#4 $)

>  <Rbt.Library>
libRbt.so (2013.1, Build901 2013/11/27)

>  <Rbt.Parameter_File>
/export/apps/rDock/src/rDock_2013.1_src/data/scripts/dock_solv.prm

>  <Rbt.Receptor>
prm/pocket_docking_7.prm

>  <SCORE>
-12.2323

>  <SCORE.INTER>
-11.2607

>  <SCORE.INTER.CONST>
1

>  <SCORE.INTER.POLAR>
-1.65041

>  <SCORE.INTER.ROT>
3

>  <SCORE.INTER.SOLV>
12.9502

>  <SCORE.INTER.VDW>
-11.9225

>  <SCORE.INTER.norm>
-0.511849

>  <SCORE.INTRA>
-0.971644

>  <SCORE.INTRA.DIHEDRAL>
-3.51865

>  <SCORE.INTRA.DIHEDRAL.0>
4.88619

>  <SCORE.INTRA.POLAR>
0

>  <SCORE.INTRA.POLAR.0>
0

>  <SCORE.INTRA.REPUL>
0

>  <SCORE.INTRA.REPUL.0>
0

>  <SCORE.INTRA.SOLV>
0.229696

>  <SCORE.INTRA.SOLV.lig_0>
-73.8187

>  <SCORE.INTRA.VDW>
0.672833

>  <SCORE.INTRA.VDW.0>
-1.32335

>  <SCORE.INTRA.norm>
-0.0441656

>  <SCORE.RESTR>
0

>  <SCORE.RESTR.CAVITY>
0

>  <SCORE.RESTR.norm>
0

>  <SCORE.SYSTEM>
0

>  <SCORE.SYSTEM.CONST>
0

>  <SCORE.SYSTEM.DIHEDRAL>
0

>  <SCORE.SYSTEM.SOLV>
0

>  <SCORE.SYSTEM.norm>
0

>  <SCORE.heavy>
22

>  <SCORE.norm>
-0.556015

>  <RMSD>
7.393

$$$$
2fcx_lig
 OpenBabel11021811433D
libRbt.so/2013.1/901 2013/11/27
 22 23  0  0  0  0  0  0  0  0999 V2000
   30.9191   13.2935   14.4938 N   0  0  0  0  0  0  0  0  0  0  0  0
   28.8068   13.7589   10.0897 N   0  0  0  0  0  0  0  0  0  0  0  0
   24.8100   13.6050    7.9387 N   0  0  0  0  0  0  0  0  0  0  0  0
   28.8016    9.4518   12.3545 O   0  0  0  0  0  0  0  0  0  0  0  0
   29.5718   10.6335   12.1180 C   0  0  2  0  0  0  0  0  0  0  0  0
   28.9184    8.5128    8.3453 N   0  0  0  0  0  0  0  0  0  0  0  0
   30.7017   10.4279   14.2249 O   0  0  0  0  0  0  0  0  0  0  0  0
   29.8957   11.3205   13.4467 C   0  0  1  0  0  0  0  0  0  0  0  0
   28.6986   10.9383    9.8650 O   0  0  0  0  0  0  0  0  0  0  0  0
   30.6597   12.6253   13.2101 C   0  0  1  0  0  0  0  0  0  0  0  0
   26.3601   10.7920    9.8198 O   0  0  0  0  0  0  0  0  0  0  0  0
   29.8532   13.5656   12.3081 C   0  0  0  0  0  0  0  0  0  0  0  0
   26.1477   11.9353    6.3085 O   0  0  0  0  0  0  0  0  0  0  0  0
   29.5829   12.8734   10.9693 C   0  0  1  0  0  0  0  0  0  0  0  0
   27.5361    9.4813    6.0246 O   0  0  0  0  0  0  0  0  0  0  0  0
   28.8180   11.5596   11.1557 C   0  0  2  0  0  0  0  0  0  0  0  0
   27.5838   10.0358    9.7630 C   0  0  1  0  0  0  0  0  0  0  0  0
   26.1926   11.7208    8.7297 C   0  0  2  0  0  0  0  0  0  0  0  0
   24.8539   12.4523    8.8506 C   0  0  0  0  0  0  0  0  0  0  0  0
   26.2245   10.9933    7.3829 C   0  0  2  0  0  0  0  0  0  0  0  0
   27.5324   10.2108    7.2532 C   0  0  1  0  0  0  0  0  0  0  0  0
   27.6553    9.2566    8.4441 C   0  0  1  0  0  0  0  0  0  0  0  0
  5  4  1  1  0  0  0
  5  8  1  0  0  0  0
  5 16  1  0  0  0  0
  8  7  1  1  0  0  0
  8 10  1  0  0  0  0
 10  1  1  1  0  0  0
 10 12  1  0  0  0  0
 11 18  1  0  0  0  0
 12 14  1  0  0  0  0
 14  2  1  6  0  0  0
 14 16  1  0  0  0  0
 16  9  1  6  0  0  0
 17  9  1  6  0  0  0
 17 11  1  0  0  0  0
 17 22  1  0  0  0  0
 18 19  1  1  0  0  0
 18 20  1  0  0  0  0
 19  3  1  0  0  0  0
 20 13  1  6  0  0  0
 20 21  1  0  0  0  0
 21 15  1  6  0  0  0
 21 22  1  0  0  0  0
 22  6  1  6  0  0  0
M  END
>  <CHROM.1>
83.96320257,68.16746198,166.92834467,28.17583404,11.31331482,10.12295797
0.53787088,-0.88781148,0.51208081

>  <Name>
2fcx_lig

>  <RI>
4.08374e+07

>  <Rbt.Current_Directory>
/home/itssahil/PROJECTS/Mol_Feturizer/New_Systems/rnas/2fcx

>  <Rbt.Executable>
rbdock ($Id: //depot/dev/client3/rdock/2013.1/src/exe/rbdock.cxx#4 $)

>  <Rbt.Library>
libRbt.so (2013.1, Build901 2013/11/27)

>  <Rbt.Parameter_File>
/export/apps/rDock/src/rDock_2013.1_src/data/scripts/dock_solv.prm

>  <Rbt.Receptor>
prm/pocket_docking_7.prm

>  <SCORE>
-12.9448

>  <SCORE.INTER>
-12.5461

>  <SCORE.INTER.CONST>
1

>  <SCORE.INTER.POLAR>
-2.20883

>  <SCORE.INTER.ROT>
3

>  <SCORE.INTER.SOLV>
17.6019

>  <SCORE.INTER.VDW>
-12.4686

>  <SCORE.INTER.norm>
-0.570278

>  <SCORE.INTRA>
-0.398732

>  <SCORE.INTRA.DIHEDRAL>
-1.47313

>  <SCORE.INTRA.DIHEDRAL.0>
4.88619

>  <SCORE.INTRA.POLAR>
0

>  <SCORE.INTRA.POLAR.0>
0

>  <SCORE.INTRA.REPUL>
0

>  <SCORE.INTRA.REPUL.0>
0

>  <SCORE.INTRA.SOLV>
1.02093

>  <SCORE.INTRA.SOLV.lig_0>
-73.8187

>  <SCORE.INTRA.VDW>
-0.172629

>  <SCORE.INTRA.VDW.0>
-1.32335

>  <SCORE.INTRA.norm>
-0.0181242

>  <SCORE.RESTR>
0

>  <SCORE.RESTR.CAVITY>
0

>  <SCORE.RESTR.norm>
0

>  <SCORE.SYSTEM>
0

>  <SCORE.SYSTEM.CONST>
0

>  <SCORE.SYSTEM.DIHEDRAL>
0

>  <SCORE.SYSTEM.SOLV>
0

>  <SCORE.SYSTEM.norm>
0

>  <SCORE.heavy>
22

>  <SCORE.norm>
-0.588402

>  <RMSD>
7.395

$$$$
2fcx_lig
 OpenBabel11021811433D
libRbt.so/2013.1/901 2013/11/27
 22 23  0  0  0  0  0  0  0  0999 V2000
   28.3941   11.4691   14.8635 N   0  0  0  0  0  0  0  0  0  0  0  0
   28.7533   10.7976   10.0164 N   0  0  0  0  0  0  0  0  0  0  0  0
   25.9616    9.9178    6.0935 N   0  0  0  0  0  0  0  0  0  0  0  0
   26.6212    7.4196   12.7954 O   0  0  0  0  0  0  0  0  0  0  0  0
   27.6817    8.3781   12.7485 C   0  0  2  0  0  0  0  0  0  0  0  0
   28.5141    5.2714    9.9422 N   0  0  0  0  0  0  0  0  0  0  0  0
   27.6157    8.7020   15.1253 O   0  0  0  0  0  0  0  0  0  0  0  0
   27.5142    9.3980   13.8773 C   0  0  1  0  0  0  0  0  0  0  0  0
   28.0584    8.0745   10.3617 O   0  0  0  0  0  0  0  0  0  0  0  0
   28.6003   10.4736   13.8014 C   0  0  1  0  0  0  0  0  0  0  0  0
   26.0009    7.9389    9.2482 O   0  0  0  0  0  0  0  0  0  0  0  0
   28.5677   11.1768   12.4403 C   0  0  0  0  0  0  0  0  0  0  0  0
   27.5810    7.7979    5.9068 O   0  0  0  0  0  0  0  0  0  0  0  0
   28.7841   10.1428   11.3318 C   0  0  1  0  0  0  0  0  0  0  0  0
   28.5050    5.3872    7.0750 O   0  0  0  0  0  0  0  0  0  0  0  0
   27.7183    9.0435   11.3673 C   0  0  2  0  0  0  0  0  0  0  0  0
   26.9704    7.2007   10.0147 C   0  0  1  0  0  0  0  0  0  0  0  0
   26.5009    8.4342    7.9898 C   0  0  2  0  0  0  0  0  0  0  0  0
   25.3974    9.1722    7.2285 C   0  0  0  0  0  0  0  0  0  0  0  0
   27.0061    7.2854    7.1128 C   0  0  2  0  0  0  0  0  0  0  0  0
   28.0777    6.4967    7.8674 C   0  0  1  0  0  0  0  0  0  0  0  0
   27.4891    6.0127    9.1952 C   0  0  1  0  0  0  0  0  0  0  0  0
  5  4  1  6  0  0  0
  5  8  1  0  0  0  0
  5 16  1  0  0  0  0
  8  7  1  1  0  0  0
  8 10  1  0  0  0  0
 10  1  1  1  0  0  0
 10 12  1  0  0  0  0
 11 18  1  0  0  0  0
 12 14  1  0  0  0  0
 14  2  1  6  0  0  0
 14 16  1  0  0  0  0
 16  9  1  6  0  0  0
 17  9  1  6  0  0  0
 17 11  1  0  0  0  0
 17 22  1  0  0  0  0
 18 19  1  6  0  0  0
 18 20  1  0  0  0  0
 19  3  1  0  0  0  0
 20 13  1  6  0  0  0
 20 21  1  0  0  0  0
 21 15  1  6  0  0  0
 21 22  1  0  0  0  0
 22  6  1  1  0  0  0
M  END
>  <CHROM.1>
76.46719945,72.33333638,168.01450475,27.55097661,8.42496362,10.27542954,0.79462642
-1.38758917,0.44097589

>  <Name>
2fcx_lig

>  <RI>
1.15031e+07

>  <Rbt.Current_Directory>
/home/itssahil/PROJECTS/Mol_Feturizer/New_Systems/rnas/2fcx

>  <Rbt.Executable>
rbdock ($Id: //depot/dev/client3/rdock/2013.1/src/exe/rbdock.cxx#4 $)

>  <Rbt.Library>
libRbt.so (2013.1, Build901 2013/11/27)

>  <Rbt.Parameter_File>
/export/apps/rDock/src/rDock_2013.1_src/data/scripts/dock_solv.prm

>  <Rbt.Receptor>
prm/pocket_docking_8.prm

>  <SCORE>
-12.6439

>  <SCORE.INTER>
-11.9996

>  <SCORE.INTER.CONST>
1

>  <SCORE.INTER.POLAR>
-2.54078

>  <SCORE.INTER.ROT>
3

>  <SCORE.INTER.SOLV>
15.1523

>  <SCORE.INTER.VDW>
-10.1812

>  <SCORE.INTER.norm>
-0.545438

>  <SCORE.INTRA>
-0.644608

>  <SCORE.INTRA.DIHEDRAL>
-2.38786

>  <SCORE.INTRA.DIHEDRAL.0>
4.88619

>  <SCORE.INTRA.POLAR>
0

>  <SCORE.INTRA.POLAR.0>
0

>  <SCORE.INTRA.REPUL>
0

>  <SCORE.INTRA.REPUL.0>
0

>  <SCORE.INTRA.SOLV>
0.702149

>  <SCORE.INTRA.SOLV.lig_0>
-73.8187

>  <SCORE.INTRA.VDW>
0.198248

>  <SCORE.INTRA.VDW.0>
-1.32335

>  <SCORE.INTRA.norm>
-0.0293004

>  <SCORE.RESTR>
0.000326813

>  <SCORE.RESTR.CAVITY>
0.000326813

>  <SCORE.RESTR.norm>
1.48552e-05

>  <SCORE.SYSTEM>
0

>  <SCORE.SYSTEM.CONST>
0

>  <SCORE.SYSTEM.DIHEDRAL>
0

>  <SCORE.SYSTEM.SOLV>
0

>  <SCORE.SYSTEM.norm>
0

>  <SCORE.heavy>
22

>  <SCORE.norm>
-0.574724

>  <RMSD>
7.396

$$$$
2fcx_lig
 OpenBabel11021811433D
libRbt.so/2013.1/901 2013/11/27
 22 23  0  0  0  0  0  0  0  0999 V2000
   25.8588    7.8627   16.6402 N   0  0  0  0  0  0  0  0  0  0  0  0
   24.8798   11.7372   13.7934 N   0  0  0  0  0  0  0  0  0  0  0  0
   23.0390   10.5823    8.4645 N   0  0  0  0  0  0  0  0  0  0  0  0
   27.3797    7.9652   12.0039 O   0  0  0  0  0  0  0  0  0  0  0  0
   27.1651    8.7608   13.1729 C   0  0  2  0  0  0  0  0  0  0  0  0
   28.7683   11.5182    9.9742 N   0  0  0  0  0  0  0  0  0  0  0  0
   27.7065    6.9310   14.6280 O   0  0  0  0  0  0  0  0  0  0  0  0
   26.6755    7.8777   14.3231 C   0  0  1  0  0  0  0  0  0  0  0  0
   26.7656   10.7989   11.9011 O   0  0  0  0  0  0  0  0  0  0  0  0
   26.3728    8.7217   15.5633 C   0  0  1  0  0  0  0  0  0  0  0  0
   25.2829   10.2065   10.1858 O   0  0  0  0  0  0  0  0  0  0  0  0
   25.3324    9.7996   15.2405 C   0  0  0  0  0  0  0  0  0  0  0  0
   24.4907   13.7263    9.3703 O   0  0  0  0  0  0  0  0  0  0  0  0
   25.8655   10.6973   14.1203 C   0  0  1  0  0  0  0  0  0  0  0  0
   27.2437   13.5957    8.7116 O   0  0  0  0  0  0  0  0  0  0  0  0
   26.1832    9.8951   12.8549 C   0  0  2  0  0  0  0  0  0  0  0  0
   26.6714   10.3387   10.5420 C   0  0  1  0  0  0  0  0  0  0  0  0
   24.5486   11.4471   10.2141 C   0  0  2  0  0  0  0  0  0  0  0  0
   23.0964   11.2194    9.7887 C   0  0  0  0  0  0  0  0  0  0  0  0
   25.1737   12.4733    9.2653 C   0  0  2  0  0  0  0  0  0  0  0  0
   26.6426   12.6859    9.6349 C   0  0  1  0  0  0  0  0  0  0  0  0
   27.3598   11.3337    9.5996 C   0  0  1  0  0  0  0  0  0  0  0  0
  5  4  1  6  0  0  0
  5  8  1  0  0  0  0
  5 16  1  0  0  0  0
  8  7  1  1  0  0  0
  8 10  1  0  0  0  0
 10  1  1  1  0  0  0
 10 12  1  0  0  0  0
 11 18  1  0  0  0  0
 12 14  1  0  0  0  0
 14  2  1  6  0  0  0
 14 16  1  0  0  0  0
 16  9  1  6  0  0  0
 17  9  1  1  0  0  0
 17 11  1  0  0  0  0
 17 22  1  0  0  0  0
 18 19  1  6  0  0  0
 18 20  1  0  0  0  0
 19  3  1  0  0  0  0
 20 13  1  1  0  0  0
 20 21  1  0  0  0  0
 21 15  1  6  0  0  0
 21 22  1  0  0  0  0
 22  6  1  1  0  0  0
M  END
>  <CHROM.1>
80.92116369,61.40163638,-55.74001970,26.03238992,10.46661247,11.78802070
1.40978001,-0.25576318,2.14079791

>  <Name>
2fcx_lig

>  <RI>
4.08374e+07

>  <Rbt.Current_Directory>
/home/itssahil/PROJECTS/Mol_Feturizer/New_Systems/rnas/2fcx

>  <Rbt.Executable>
rbdock ($Id: //depot/dev/client3/rdock/2013.1/src/exe/rbdock.cxx#4 $)

>  <Rbt.Library>
libRbt.so (2013.1, Build901 2013/11/27)

>  <Rbt.Parameter_File>
/export/apps/rDock/src/rDock_2013.1_src/data/scripts/dock_solv.prm

>  <Rbt.Receptor>
prm/pocket_docking_7.prm

>  <SCORE>
-13.5188

>  <SCORE.INTER>
-12.4574

>  <SCORE.INTER.CONST>
1

>  <SCORE.INTER.POLAR>
-2.59083

>  <SCORE.INTER.ROT>
3

>  <SCORE.INTER.SOLV>
15.7696

>  <SCORE.INTER.VDW>
-10.5254

>  <SCORE.INTER.norm>
-0.566246

>  <SCORE.INTRA>
-1.06138

>  <SCORE.INTRA.DIHEDRAL>
-2.85268

>  <SCORE.INTRA.DIHEDRAL.0>
4.88619

>  <SCORE.INTRA.POLAR>
0

>  <SCORE.INTRA.POLAR.0>
0

>  <SCORE.INTRA.REPUL>
0

>  <SCORE.INTRA.REPUL.0>
0

>  <SCORE.INTRA.SOLV>
1.03537

>  <SCORE.INTRA.SOLV.lig_0>
-73.8187

>  <SCORE.INTRA.VDW>
-0.152722

>  <SCORE.INTRA.VDW.0>
-1.32335

>  <SCORE.INTRA.norm>
-0.0482445

>  <SCORE.RESTR>
0

>  <SCORE.RESTR.CAVITY>
0

>  <SCORE.RESTR.norm>
0

>  <SCORE.SYSTEM>
0

>  <SCORE.SYSTEM.CONST>
0

>  <SCORE.SYSTEM.DIHEDRAL>
0

>  <SCORE.SYSTEM.SOLV>
0

>  <SCORE.SYSTEM.norm>
0

>  <SCORE.heavy>
22

>  <SCORE.norm>
-0.614491

>  <RMSD>
7.397

$$$$
2fcx_lig
 OpenBabel11021811433D
libRbt.so/2013.1/901 2013/11/27
 22 23  0  0  0  0  0  0  0  0999 V2000
   30.7845   13.0994   14.4829 N   0  0  0  0  0  0  0  0  0  0  0  0
   28.8541   13.7325   10.0166 N   0  0  0  0  0  0  0  0  0  0  0  0
   24.6933   13.1475    9.7035 N   0  0  0  0  0  0  0  0  0  0  0  0
   28.5853    9.3904   12.1969 O   0  0  0  0  0  0  0  0  0  0  0  0
   29.4127   10.5420   12.0105 C   0  0  2  0  0  0  0  0  0  0  0  0
   28.9488    8.4514    8.3093 N   0  0  0  0  0  0  0  0  0  0  0  0
   30.4563   10.2510   14.1516 O   0  0  0  0  0  0  0  0  0  0  0  0
   29.7172   11.1909   13.3627 C   0  0  1  0  0  0  0  0  0  0  0  0
   28.6351   10.9236    9.7343 O   0  0  0  0  0  0  0  0  0  0  0  0
   30.5437   12.4657   13.1782 C   0  0  1  0  0  0  0  0  0  0  0  0
   26.3034   10.7631    9.5628 O   0  0  0  0  0  0  0  0  0  0  0  0
   29.8106   13.4555   12.2665 C   0  0  0  0  0  0  0  0  0  0  0  0
   26.2846   11.7909    6.0097 O   0  0  0  0  0  0  0  0  0  0  0  0
   29.5599   12.7992   10.9059 C   0  0  1  0  0  0  0  0  0  0  0  0
   27.6958    9.3367    5.8843 O   0  0  0  0  0  0  0  0  0  0  0  0
   28.7340   11.5163   11.0400 C   0  0  2  0  0  0  0  0  0  0  0  0
   27.5311   10.0121    9.5994 C   0  0  1  0  0  0  0  0  0  0  0  0
   26.1941   11.6552    8.4353 C   0  0  2  0  0  0  0  0  0  0  0  0
   24.8480   12.3828    8.4570 C   0  0  0  0  0  0  0  0  0  0  0  0
   26.3043   10.8846    7.1169 C   0  0  2  0  0  0  0  0  0  0  0  0
   27.6203   10.1055    7.0863 C   0  0  1  0  0  0  0  0  0  0  0  0
   27.6795    9.1911    8.3127 C   0  0  1  0  0  0  0  0  0  0  0  0
  5  4  1  1  0  0  0
  5  8  1  0  0  0  0
  5 16  1  0  0  0  0
  8  7  1  1  0  0  0
  8 10  1  0  0  0  0
 10  1  1  1  0  0  0
 10 12  1  0  0  0  0
 11 18  1  0  0  0  0
 12 14  1  0  0  0  0
 14  2  1  6  0  0  0
 14 16  1  0  0  0  0
 16  9  1  6  0  0  0
 17  9  1  6  0  0  0
 17 11  1  0  0  0  0
 17 22  1  0  0  0  0
 18 19  1  6  0  0  0
 18 20  1  0  0  0  0
 19  3  1  0  0  0  0
 20 13  1  6  0  0  0
 20 21  1  0  0  0  0
 21 15  1  6  0  0  0
 21 22  1  0  0  0  0
 22  6  1  1  0  0  0
M  END
>  <CHROM.1>
80.59826818,72.28080071,58.65199392,28.13347160,11.20599726,10.06322754,0.70228812
-0.84895286,0.66782196

>  <Name>
2fcx_lig

>  <RI>
4.08374e+07

>  <Rbt.Current_Directory>
/home/itssahil/PROJECTS/Mol_Feturizer/New_Systems/rnas/2fcx

>  <Rbt.Executable>
rbdock ($Id: //depot/dev/client3/rdock/2013.1/src/exe/rbdock.cxx#4 $)

>  <Rbt.Library>
libRbt.so (2013.1, Build901 2013/11/27)

>  <Rbt.Parameter_File>
/export/apps/rDock/src/rDock_2013.1_src/data/scripts/dock_solv.prm

>  <Rbt.Receptor>
prm/pocket_docking_7.prm

>  <SCORE>
-14.6042

>  <SCORE.INTER>
-13.2631

>  <SCORE.INTER.CONST>
1

>  <SCORE.INTER.POLAR>
-2.29051

>  <SCORE.INTER.ROT>
3

>  <SCORE.INTER.SOLV>
15.3587

>  <SCORE.INTER.VDW>
-11.9266

>  <SCORE.INTER.norm>
-0.602868

>  <SCORE.INTRA>
-1.34107

>  <SCORE.INTRA.DIHEDRAL>
-2.25321

>  <SCORE.INTRA.DIHEDRAL.0>
4.88619

>  <SCORE.INTRA.POLAR>
0

>  <SCORE.INTRA.POLAR.0>
0

>  <SCORE.INTRA.REPUL>
0

>  <SCORE.INTRA.REPUL.0>
0

>  <SCORE.INTRA.SOLV>
0.0904311

>  <SCORE.INTRA.SOLV.lig_0>
-73.8187

>  <SCORE.INTRA.VDW>
-0.259685

>  <SCORE.INTRA.VDW.0>
-1.32335

>  <SCORE.INTRA.norm>
-0.0609578

>  <SCORE.RESTR>
0

>  <SCORE.RESTR.CAVITY>
0

>  <SCORE.RESTR.norm>
0

>  <SCORE.SYSTEM>
0

>  <SCORE.SYSTEM.CONST>
0

>  <SCORE.SYSTEM.DIHEDRAL>
0

>  <SCORE.SYSTEM.SOLV>
0

>  <SCORE.SYSTEM.norm>
0

>  <SCORE.heavy>
22

>  <SCORE.norm>
-0.663826

>  <RMSD>
7.404

$$$$
2fcx_lig
 OpenBabel11021811433D
libRbt.so/2013.1/901 2013/11/27
 22 23  0  0  0  0  0  0  0  0999 V2000
   26.0161    7.9476   17.1161 N   0  0  0  0  0  0  0  0  0  0  0  0
   24.6531   11.5503   14.0768 N   0  0  0  0  0  0  0  0  0  0  0  0
   23.2175   13.1844   10.2719 N   0  0  0  0  0  0  0  0  0  0  0  0
   27.0769    7.6962   12.3590 O   0  0  0  0  0  0  0  0  0  0  0  0
   26.9535    8.5815   13.4754 C   0  0  2  0  0  0  0  0  0  0  0  0
   28.2215    9.0651   10.4241 N   0  0  0  0  0  0  0  0  0  0  0  0
   27.6864    6.8910   15.0127 O   0  0  0  0  0  0  0  0  0  0  0  0
   26.6036    7.7871   14.7360 C   0  0  1  0  0  0  0  0  0  0  0  0
   26.3733   10.4979   12.0891 O   0  0  0  0  0  0  0  0  0  0  0  0
   26.3980    8.7247   15.9279 C   0  0  1  0  0  0  0  0  0  0  0  0
   24.9995   10.9357   10.2417 O   0  0  0  0  0  0  0  0  0  0  0  0
   25.3002    9.7498   15.6236 C   0  0  0  0  0  0  0  0  0  0  0  0
   27.2367   13.5779    8.9398 O   0  0  0  0  0  0  0  0  0  0  0  0
   25.6958   10.5622   14.3875 C   0  0  1  0  0  0  0  0  0  0  0  0
   28.8840   11.2821    8.7269 O   0  0  0  0  0  0  0  0  0  0  0  0
   25.9127    9.6644   13.1657 C   0  0  2  0  0  0  0  0  0  0  0  0
   25.9749   10.0295   10.7892 C   0  0  1  0  0  0  0  0  0  0  0  0
   25.4962   12.2716   10.0236 C   0  0  2  0  0  0  0  0  0  0  0  0
   24.4075   13.1538    9.4086 C   0  0  0  0  0  0  0  0  0  0  0  0
   26.6988   12.2589    9.0761 C   0  0  2  0  0  0  0  0  0  0  0  0
   27.7872   11.3442    9.6404 C   0  0  1  0  0  0  0  0  0  0  0  0
   27.1932    9.9505    9.8611 C   0  0  1  0  0  0  0  0  0  0  0  0
  5  4  1  6  0  0  0
  5  8  1  0  0  0  0
  5 16  1  0  0  0  0
  8  7  1  1  0  0  0
  8 10  1  0  0  0  0
 10  1  1  1  0  0  0
 10 12  1  0  0  0  0
 11 18  1  0  0  0  0
 12 14  1  0  0  0  0
 14  2  1  6  0  0  0
 14 16  1  0  0  0  0
 16  9  1  6  0  0  0
 17  9  1  1  0  0  0
 17 11  1  0  0  0  0
 17 22  1  0  0  0  0
 18 19  1  6  0  0  0
 18 20  1  0  0  0  0
 19  3  1  0  0  0  0
 20 13  1  1  0  0  0
 20 21  1  0  0  0  0
 21 15  1  6  0  0  0
 21 22  1  0  0  0  0
 22  6  1  1  0  0  0
M  END
>  <CHROM.1>
90.23071777,110.42271934,57.48496039,26.33140077,10.30486609,12.02886311
1.54705068,-0.69439202,2.14127087

>  <Name>
2fcx_lig

>  <RI>
1.15031e+07

>  <Rbt.Current_Directory>
/home/itssahil/PROJECTS/Mol_Feturizer/New_Systems/rnas/2fcx

>  <Rbt.Executable>
rbdock ($Id: //depot/dev/client3/rdock/2013.1/src/exe/rbdock.cxx#4 $)

>  <Rbt.Library>
libRbt.so (2013.1, Build901 2013/11/27)

>  <Rbt.Parameter_File>
/export/apps/rDock/src/rDock_2013.1_src/data/scripts/dock_solv.prm

>  <Rbt.Receptor>
prm/pocket_docking_8.prm

>  <SCORE>
-15.7817

>  <SCORE.INTER>
-18.7473

>  <SCORE.INTER.CONST>
1

>  <SCORE.INTER.POLAR>
-3.37018

>  <SCORE.INTER.ROT>
3

>  <SCORE.INTER.SOLV>
16.8748

>  <SCORE.INTER.VDW>
-12.4892

>  <SCORE.INTER.norm>
-0.85215

>  <SCORE.INTRA>
2.96563

>  <SCORE.INTRA.DIHEDRAL>
5.54373

>  <SCORE.INTRA.DIHEDRAL.0>
4.88619

>  <SCORE.INTRA.POLAR>
0

>  <SCORE.INTRA.POLAR.0>
0

>  <SCORE.INTRA.REPUL>
0

>  <SCORE.INTRA.REPUL.0>
0

>  <SCORE.INTRA.SOLV>
1.17609

>  <SCORE.INTRA.SOLV.lig_0>
-73.8187

>  <SCORE.INTRA.VDW>
-0.394282

>  <SCORE.INTRA.VDW.0>
-1.32335

>  <SCORE.INTRA.norm>
0.134801

>  <SCORE.RESTR>
0

>  <SCORE.RESTR.CAVITY>
0

>  <SCORE.RESTR.norm>
0

>  <SCORE.SYSTEM>
0

>  <SCORE.SYSTEM.CONST>
0

>  <SCORE.SYSTEM.DIHEDRAL>
0

>  <SCORE.SYSTEM.SOLV>
0

>  <SCORE.SYSTEM.norm>
0

>  <SCORE.heavy>
22

>  <SCORE.norm>
-0.717349

>  <RMSD>
7.404

$$$$
2fcx_lig
 OpenBabel11021811433D
libRbt.so/2013.1/901 2013/11/27
 22 23  0  0  0  0  0  0  0  0999 V2000
   27.7561    7.8897   15.5995 N   0  0  0  0  0  0  0  0  0  0  0  0
   25.3393    8.0512   11.3325 N   0  0  0  0  0  0  0  0  0  0  0  0
   27.7229    5.9051    8.3178 N   0  0  0  0  0  0  0  0  0  0  0  0
   29.8110    9.9395   11.6759 O   0  0  0  0  0  0  0  0  0  0  0  0
   28.5779    9.7514   12.3755 C   0  0  2  0  0  0  0  0  0  0  0  0
   27.7112   12.3884    8.9694 N   0  0  0  0  0  0  0  0  0  0  0  0
   29.6834    9.7389   14.5053 O   0  0  0  0  0  0  0  0  0  0  0  0
   28.8232    8.9620   13.6636 C   0  0  1  0  0  0  0  0  0  0  0  0
   27.2273    9.9219   10.3561 O   0  0  0  0  0  0  0  0  0  0  0  0
   27.5049    8.6894   14.3916 C   0  0  1  0  0  0  0  0  0  0  0  0
   28.4068    8.7325    8.7172 O   0  0  0  0  0  0  0  0  0  0  0  0
   26.5332    7.9317   13.4805 C   0  0  0  0  0  0  0  0  0  0  0  0
   25.6310    8.9273    6.2803 O   0  0  0  0  0  0  0  0  0  0  0  0
   26.2679    8.7628   12.2221 C   0  0  1  0  0  0  0  0  0  0  0  0
   26.3353   11.6579    6.5596 O   0  0  0  0  0  0  0  0  0  0  0  0
   27.5612    9.0613   11.4579 C   0  0  2  0  0  0  0  0  0  0  0  0
   28.2631   10.0112    9.3626 C   0  0  1  0  0  0  0  0  0  0  0  0
   27.2331    8.3022    7.9987 C   0  0  2  0  0  0  0  0  0  0  0  0
   27.4867    6.9559    7.3166 C   0  0  0  0  0  0  0  0  0  0  0  0
   26.8466    9.3218    6.9239 C   0  0  2  0  0  0  0  0  0  0  0  0
   26.6344   10.6922    7.5693 C   0  0  1  0  0  0  0  0  0  0  0  0
   27.9073   11.0829    8.3250 C   0  0  1  0  0  0  0  0  0  0  0  0
  5  4  1  6  0  0  0
  5  8  1  0  0  0  0
  5 16  1  0  0  0  0
  8  7  1  1  0  0  0
  8 10  1  0  0  0  0
 10  1  1  1  0  0  0
 10 12  1  0  0  0  0
 11 18  1  0  0  0  0
 12 14  1  0  0  0  0
 14  2  1  6  0  0  0
 14 16  1  0  0  0  0
 16  9  1  6  0  0  0
 17  9  1  1  0  0  0
 17 11  1  0  0  0  0
 17 22  1  0  0  0  0
 18 19  1  6  0  0  0
 18 20  1  0  0  0  0
 19  3  1  0  0  0  0
 20 13  1  1  0  0  0
 20 21  1  0  0  0  0
 21 15  1  6  0  0  0
 21 22  1  0  0  0  0
 22  6  1  1  0  0  0
M  END
>  <CHROM.1>
74.56619277,66.77391368,64.33072620,27.52332672,9.22777026,10.30826017,1.04680315
1.19944731,2.18202515

>  <Name>
2fcx_lig

>  <RI>
1.15031e+07

>  <Rbt.Current_Directory>
/home/itssahil/PROJECTS/Mol_Feturizer/New_Systems/rnas/2fcx

>  <Rbt.Executable>
rbdock ($Id: //depot/dev/client3/rdock/2013.1/src/exe/rbdock.cxx#4 $)

>  <Rbt.Library>
libRbt.so (2013.1, Build901 2013/11/27)

>  <Rbt.Parameter_File>
/export/apps/rDock/src/rDock_2013.1_src/data/scripts/dock_solv.prm

>  <Rbt.Receptor>
prm/pocket_docking_8.prm

>  <SCORE>
-13.0578

>  <SCORE.INTER>
-11.0088

>  <SCORE.INTER.CONST>
1

>  <SCORE.INTER.POLAR>
-1.36644

>  <SCORE.INTER.ROT>
3

>  <SCORE.INTER.SOLV>
11.4216

>  <SCORE.INTER.VDW>
-12.1916

>  <SCORE.INTER.norm>
-0.500402

>  <SCORE.INTRA>
-2.04899

>  <SCORE.INTRA.DIHEDRAL>
-3.59126

>  <SCORE.INTRA.DIHEDRAL.0>
4.88619

>  <SCORE.INTRA.POLAR>
0

>  <SCORE.INTRA.POLAR.0>
0

>  <SCORE.INTRA.REPUL>
0

>  <SCORE.INTRA.REPUL.0>
0

>  <SCORE.INTRA.SOLV>
-0.585163

>  <SCORE.INTRA.SOLV.lig_0>
-73.8187

>  <SCORE.INTRA.VDW>
0.0392162

>  <SCORE.INTRA.VDW.0>
-1.32335

>  <SCORE.INTRA.norm>
-0.0931361

>  <SCORE.RESTR>
0

>  <SCORE.RESTR.CAVITY>
0

>  <SCORE.RESTR.norm>
0

>  <SCORE.SYSTEM>
0

>  <SCORE.SYSTEM.CONST>
0

>  <SCORE.SYSTEM.DIHEDRAL>
0

>  <SCORE.SYSTEM.SOLV>
0

>  <SCORE.SYSTEM.norm>
0

>  <SCORE.heavy>
22

>  <SCORE.norm>
-0.593538

>  <RMSD>
7.418

$$$$
2fcx_lig
 OpenBabel11021811433D
libRbt.so/2013.1/901 2013/11/27
 22 23  0  0  0  0  0  0  0  0999 V2000
   33.0236   17.0446   11.6417 N   0  0  0  0  0  0  0  0  0  0  0  0
   28.3342   16.7514   10.2282 N   0  0  0  0  0  0  0  0  0  0  0  0
   23.8434   15.0347   11.5517 N   0  0  0  0  0  0  0  0  0  0  0  0
   30.7367   12.7339   11.5578 O   0  0  0  0  0  0  0  0  0  0  0  0
   30.8669   13.9919   10.8900 C   0  0  2  0  0  0  0  0  0  0  0  0
   28.4575   11.4333    8.6248 N   0  0  0  0  0  0  0  0  0  0  0  0
   33.1863   14.1674   11.4794 O   0  0  0  0  0  0  0  0  0  0  0  0
   31.9291   14.8456   11.5866 C   0  0  1  0  0  0  0  0  0  0  0  0
   28.5935   13.9396   10.0180 O   0  0  0  0  0  0  0  0  0  0  0  0
   32.0335   16.2237   10.9292 C   0  0  1  0  0  0  0  0  0  0  0  0
   27.0681   13.1675   11.6208 O   0  0  0  0  0  0  0  0  0  0  0  0
   30.6774   16.9369   10.9551 C   0  0  0  0  0  0  0  0  0  0  0  0
   24.1677   13.5763    9.3621 O   0  0  0  0  0  0  0  0  0  0  0  0
   29.6442   16.0853   10.2121 C   0  0  1  0  0  0  0  0  0  0  0  0
   25.6560   11.5730    8.0197 O   0  0  0  0  0  0  0  0  0  0  0  0
   29.5042   14.6934   10.8356 C   0  0  2  0  0  0  0  0  0  0  0  0
   28.0719   12.7684   10.6692 C   0  0  1  0  0  0  0  0  0  0  0  0
   25.9212   13.8109   11.0296 C   0  0  2  0  0  0  0  0  0  0  0  0
   24.8933   14.1670   12.1059 C   0  0  0  0  0  0  0  0  0  0  0  0
   25.2483   12.8934   10.0051 C   0  0  2  0  0  0  0  0  0  0  0  0
   26.2658   12.4792    8.9408 C   0  0  1  0  0  0  0  0  0  0  0  0
   27.4604   11.8174    9.6330 C   0  0  1  0  0  0  0  0  0  0  0  0
  5  4  1  1  0  0  0
  5  8  1  0  0  0  0
  5 16  1  0  0  0  0
  8  7  1  6  0  0  0
  8 10  1  0  0  0  0
 10  1  1  1  0  0  0
 10 12  1  0  0  0  0
 11 18  1  0  0  0  0
 12 14  1  0  0  0  0
 14  2  1  1  0  0  0
 14 16  1  0  0  0  0
 16  9  1  6  0  0  0
 17  9  1  6  0  0  0
 17 11  1  0  0  0  0
 17 22  1  0  0  0  0
 18 19  1  1  0  0  0
 18 20  1  0  0  0  0
 19  3  1  0  0  0  0
 20 13  1  6  0  0  0
 20 21  1  0  0  0  0
 21 15  1  6  0  0  0
 21 22  1  0  0  0  0
 22  6  1  6  0  0  0
M  END
>  <CHROM.1>
76.33661820,75.97366700,169.66845493,28.41952886,14.06670622,10.53540404
0.39289085,-0.03372685,0.40243076

>  <Name>
2fcx_lig

>  <RI>
1.15031e+07

>  <Rbt.Current_Directory>
/home/itssahil/PROJECTS/Mol_Feturizer/New_Systems/rnas/2fcx

>  <Rbt.Executable>
rbdock ($Id: //depot/dev/client3/rdock/2013.1/src/exe/rbdock.cxx#4 $)

>  <Rbt.Library>
libRbt.so (2013.1, Build901 2013/11/27)

>  <Rbt.Parameter_File>
/export/apps/rDock/src/rDock_2013.1_src/data/scripts/dock_solv.prm

>  <Rbt.Receptor>
prm/pocket_docking_8.prm

>  <SCORE>
-12.2568

>  <SCORE.INTER>
-11.8969

>  <SCORE.INTER.CONST>
1

>  <SCORE.INTER.POLAR>
-1.87452

>  <SCORE.INTER.ROT>
3

>  <SCORE.INTER.SOLV>
16.3396

>  <SCORE.INTER.VDW>
-12.7294

>  <SCORE.INTER.norm>
-0.540768

>  <SCORE.INTRA>
-0.359883

>  <SCORE.INTRA.DIHEDRAL>
-2.07064

>  <SCORE.INTRA.DIHEDRAL.0>
4.88619

>  <SCORE.INTRA.POLAR>
0

>  <SCORE.INTRA.POLAR.0>
0

>  <SCORE.INTRA.REPUL>
0

>  <SCORE.INTRA.REPUL.0>
0

>  <SCORE.INTRA.SOLV>
0.816085

>  <SCORE.INTRA.SOLV.lig_0>
-73.8187

>  <SCORE.INTRA.VDW>
0.267396

>  <SCORE.INTRA.VDW.0>
-1.32335

>  <SCORE.INTRA.norm>
-0.0163583

>  <SCORE.RESTR>
0

>  <SCORE.RESTR.CAVITY>
0

>  <SCORE.RESTR.norm>
0

>  <SCORE.SYSTEM>
0

>  <SCORE.SYSTEM.CONST>
0

>  <SCORE.SYSTEM.DIHEDRAL>
0

>  <SCORE.SYSTEM.SOLV>
0

>  <SCORE.SYSTEM.norm>
0

>  <SCORE.heavy>
22

>  <SCORE.norm>
-0.557126

>  <RMSD>
7.434

$$$$
2fcx_lig
 OpenBabel11021811433D
libRbt.so/2013.1/901 2013/11/27
 22 23  0  0  0  0  0  0  0  0999 V2000
   29.4824   10.4461   15.2838 N   0  0  0  0  0  0  0  0  0  0  0  0
   29.3498   11.9779   10.6244 N   0  0  0  0  0  0  0  0  0  0  0  0
   25.5090   12.6444    8.3083 N   0  0  0  0  0  0  0  0  0  0  0  0
   27.0270    7.9026   11.9193 O   0  0  0  0  0  0  0  0  0  0  0  0
   28.1971    8.6912   12.1528 C   0  0  2  0  0  0  0  0  0  0  0  0
   28.4205    6.8355    8.6688 N   0  0  0  0  0  0  0  0  0  0  0  0
   28.3703    7.9264   14.4207 O   0  0  0  0  0  0  0  0  0  0  0  0
   28.2591    9.1112   13.6232 C   0  0  1  0  0  0  0  0  0  0  0  0
   28.3328    9.4532    9.8437 O   0  0  0  0  0  0  0  0  0  0  0  0
   29.4675   10.0150   13.8783 C   0  0  1  0  0  0  0  0  0  0  0  0
   26.2621    9.8734    8.8300 O   0  0  0  0  0  0  0  0  0  0  0  0
   29.4160   11.2511   12.9740 C   0  0  0  0  0  0  0  0  0  0  0  0
   27.7724   10.4553    5.5041 O   0  0  0  0  0  0  0  0  0  0  0  0
   29.4022   10.8055   11.5091 C   0  0  1  0  0  0  0  0  0  0  0  0
   28.3931    7.7251    5.9407 O   0  0  0  0  0  0  0  0  0  0  0  0
   28.2073    9.8969   11.2051 C   0  0  2  0  0  0  0  0  0  0  0  0
   27.1378    8.8438    9.3257 C   0  0  1  0  0  0  0  0  0  0  0  0
   26.8069   10.6277    7.7286 C   0  0  2  0  0  0  0  0  0  0  0  0
   25.7984   11.6717    7.2441 C   0  0  0  0  0  0  0  0  0  0  0  0
   27.1505    9.7078    6.5539 C   0  0  2  0  0  0  0  0  0  0  0  0
   28.1208    8.6211    7.0199 C   0  0  1  0  0  0  0  0  0  0  0  0
   27.4904    7.8694    8.1952 C   0  0  1  0  0  0  0  0  0  0  0  0
  5  4  1  1  0  0  0
  5  8  1  0  0  0  0
  5 16  1  0  0  0  0
  8  7  1  1  0  0  0
  8 10  1  0  0  0  0
 10  1  1  1  0  0  0
 10 12  1  0  0  0  0
 11 18  1  0  0  0  0
 12 14  1  0  0  0  0
 14  2  1  6  0  0  0
 14 16  1  0  0  0  0
 16  9  1  6  0  0  0
 17  9  1  6  0  0  0
 17 11  1  0  0  0  0
 17 22  1  0  0  0  0
 18 19  1  6  0  0  0
 18 20  1  0  0  0  0
 19  3  1  0  0  0  0
 20 13  1  6  0  0  0
 20 21  1  0  0  0  0
 21 15  1  6  0  0  0
 21 22  1  0  0  0  0
 22  6  1  1  0  0  0
M  END
>  <CHROM.1>
72.90012452,84.82677404,62.55247246,27.91391366,9.63062494,10.00748903,0.53840478
-1.29285412,0.57068294

>  <Name>
2fcx_lig

>  <RI>
4.08374e+07

>  <Rbt.Current_Directory>
/home/itssahil/PROJECTS/Mol_Feturizer/New_Systems/rnas/2fcx

>  <Rbt.Executable>
rbdock ($Id: //depot/dev/client3/rdock/2013.1/src/exe/rbdock.cxx#4 $)

>  <Rbt.Library>
libRbt.so (2013.1, Build901 2013/11/27)

>  <Rbt.Parameter_File>
/export/apps/rDock/src/rDock_2013.1_src/data/scripts/dock_solv.prm

>  <Rbt.Receptor>
prm/pocket_docking_7.prm

>  <SCORE>
-15.963

>  <SCORE.INTER>
-15.6891

>  <SCORE.INTER.CONST>
1

>  <SCORE.INTER.POLAR>
-1.98035

>  <SCORE.INTER.ROT>
3

>  <SCORE.INTER.SOLV>
14.771

>  <SCORE.INTER.VDW>
-14.3819

>  <SCORE.INTER.norm>
-0.71314

>  <SCORE.INTRA>
-0.650407

>  <SCORE.INTRA.DIHEDRAL>
-1.4293

>  <SCORE.INTRA.DIHEDRAL.0>
4.88619

>  <SCORE.INTRA.POLAR>
0

>  <SCORE.INTRA.POLAR.0>
0

>  <SCORE.INTRA.REPUL>
0

>  <SCORE.INTRA.REPUL.0>
0

>  <SCORE.INTRA.SOLV>
-0.224056

>  <SCORE.INTRA.SOLV.lig_0>
-73.8187

>  <SCORE.INTRA.VDW>
0.176269

>  <SCORE.INTRA.VDW.0>
-1.32335

>  <SCORE.INTRA.norm>
-0.029564

>  <SCORE.RESTR>
0.376517

>  <SCORE.RESTR.CAVITY>
0.376517

>  <SCORE.RESTR.norm>
0.0171144

>  <SCORE.SYSTEM>
0

>  <SCORE.SYSTEM.CONST>
0

>  <SCORE.SYSTEM.DIHEDRAL>
0

>  <SCORE.SYSTEM.SOLV>
0

>  <SCORE.SYSTEM.norm>
0

>  <SCORE.heavy>
22

>  <SCORE.norm>
-0.725589

>  <RMSD>
7.621

$$$$
2fcx_lig
 OpenBabel11021811433D
libRbt.so/2013.1/901 2013/11/27
 22 23  0  0  0  0  0  0  0  0999 V2000
   27.6721    6.7319   10.9104 N   0  0  0  0  0  0  0  0  0  0  0  0
   27.1924   11.2846    9.1445 N   0  0  0  0  0  0  0  0  0  0  0  0
   25.8863   13.3078    7.6980 N   0  0  0  0  0  0  0  0  0  0  0  0
   29.2389   10.5607   13.4997 O   0  0  0  0  0  0  0  0  0  0  0  0
   28.2175   10.1004   12.6107 C   0  0  2  0  0  0  0  0  0  0  0  0
   29.1252   14.2942   13.3086 N   0  0  0  0  0  0  0  0  0  0  0  0
   28.3425    7.8667   13.4783 O   0  0  0  0  0  0  0  0  0  0  0  0
   28.4480    8.6266   12.2686 C   0  0  1  0  0  0  0  0  0  0  0  0
   27.7827   12.3219   11.7122 O   0  0  0  0  0  0  0  0  0  0  0  0
   27.4051    8.1343   11.2624 C   0  0  1  0  0  0  0  0  0  0  0  0
   28.0294   13.6552    9.8009 O   0  0  0  0  0  0  0  0  0  0  0  0
   27.4400    8.9872    9.9898 C   0  0  0  0  0  0  0  0  0  0  0  0
   25.3189   15.9630   10.8055 O   0  0  0  0  0  0  0  0  0  0  0  0
   27.1604   10.4483   10.3528 C   0  0  1  0  0  0  0  0  0  0  0  0
   27.2244   16.3961   12.8577 O   0  0  0  0  0  0  0  0  0  0  0  0
   28.1813   10.9867   11.3596 C   0  0  2  0  0  0  0  0  0  0  0  0
   28.5834   13.3429   11.0924 C   0  0  1  0  0  0  0  0  0  0  0  0
   26.6960   14.2018    9.8504 C   0  0  2  0  0  0  0  0  0  0  0  0
   26.2021   14.5367    8.4413 C   0  0  0  0  0  0  0  0  0  0  0  0
   26.6615   15.4816   10.6902 C   0  0  2  0  0  0  0  0  0  0  0  0
   27.1972   15.1896   12.0928 C   0  0  1  0  0  0  0  0  0  0  0  0
   28.6051   14.6008   11.9693 C   0  0  1  0  0  0  0  0  0  0  0  0
  5  4  1  1  0  0  0
  5  8  1  0  0  0  0
  5 16  1  0  0  0  0
  8  7  1  1  0  0  0
  8 10  1  0  0  0  0
 10  1  1  6  0  0  0
 10 12  1  0  0  0  0
 11 18  1  0  0  0  0
 12 14  1  0  0  0  0
 14  2  1  6  0  0  0
 14 16  1  0  0  0  0
 16  9  1  1  0  0  0
 17  9  1  1  0  0  0
 17 11  1  0  0  0  0
 17 22  1  0  0  0  0
 18 19  1  6  0  0  0
 18 20  1  0  0  0  0
 19  3  1  0  0  0  0
 20 13  1  1  0  0  0
 20 21  1  0  0  0  0
 21 15  1  1  0  0  0
 21 22  1  0  0  0  0
 22  6  1  1  0  0  0
M  END
>  <CHROM.1>
135.26720302,87.20623227,72.84542461,27.57176867,12.16331464,11.17228932
1.18060166,1.11130995,-2.93684166

>  <Name>
2fcx_lig

>  <RI>
0

>  <Rbt.Current_Directory>
/home/itssahil/PROJECTS/Mol_Feturizer/New_Systems/rnas/2fcx

>  <Rbt.Executable>
rbdock ($Id: //depot/dev/client3/rdock/2013.1/src/exe/rbdock.cxx#4 $)

>  <Rbt.Library>
libRbt.so (2013.1, Build901 2013/11/27)

>  <Rbt.Parameter_File>
/export/apps/rDock/src/rDock_2013.1_src/data/scripts/dock_solv.prm

>  <Rbt.Receptor>
prm/pocket_docking_6.prm

>  <SCORE>
-6.22033

>  <SCORE.INTER>
-10.1352

>  <SCORE.INTER.CONST>
1

>  <SCORE.INTER.POLAR>
-1.6945

>  <SCORE.INTER.ROT>
3

>  <SCORE.INTER.SOLV>
12.3185

>  <SCORE.INTER.VDW>
-10.8147

>  <SCORE.INTER.norm>
-0.460693

>  <SCORE.INTRA>
3.91246

>  <SCORE.INTRA.DIHEDRAL>
4.87242

>  <SCORE.INTRA.DIHEDRAL.0>
4.88619

>  <SCORE.INTRA.POLAR>
0

>  <SCORE.INTRA.POLAR.0>
0

>  <SCORE.INTRA.REPUL>
0

>  <SCORE.INTRA.REPUL.0>
0

>  <SCORE.INTRA.SOLV>
4.25487

>  <SCORE.INTRA.SOLV.lig_0>
-73.8187

>  <SCORE.INTRA.VDW>
-0.651181

>  <SCORE.INTRA.VDW.0>
-1.32335

>  <SCORE.INTRA.norm>
0.177839

>  <SCORE.RESTR>
0.00244965

>  <SCORE.RESTR.CAVITY>
0.00244965

>  <SCORE.RESTR.norm>
0.000111348

>  <SCORE.SYSTEM>
0

>  <SCORE.SYSTEM.CONST>
0

>  <SCORE.SYSTEM.DIHEDRAL>
0

>  <SCORE.SYSTEM.SOLV>
0

>  <SCORE.SYSTEM.norm>
0

>  <SCORE.heavy>
22

>  <SCORE.norm>
-0.282742

>  <RMSD>
7.706

$$$$
2fcx_lig
 OpenBabel11021811433D
libRbt.so/2013.1/901 2013/11/27
 22 23  0  0  0  0  0  0  0  0999 V2000
   29.1679   10.4023   14.9626 N   0  0  0  0  0  0  0  0  0  0  0  0
   28.9938   11.6527   10.2212 N   0  0  0  0  0  0  0  0  0  0  0  0
   24.8535   11.9983    8.8426 N   0  0  0  0  0  0  0  0  0  0  0  0
   26.9634    7.4931   11.7229 O   0  0  0  0  0  0  0  0  0  0  0  0
   28.0671    8.3802   11.9237 C   0  0  2  0  0  0  0  0  0  0  0  0
   28.4470    6.6565    7.9657 N   0  0  0  0  0  0  0  0  0  0  0  0
   28.2616    7.7606   14.2338 O   0  0  0  0  0  0  0  0  0  0  0  0
   28.0744    8.8864   13.3681 C   0  0  1  0  0  0  0  0  0  0  0  0
   28.1815    9.0180    9.5761 O   0  0  0  0  0  0  0  0  0  0  0  0
   29.2074    9.8922   13.5842 C   0  0  1  0  0  0  0  0  0  0  0  0
   25.9897    9.3331    8.8088 O   0  0  0  0  0  0  0  0  0  0  0  0
   29.0775   11.0675   12.6095 C   0  0  0  0  0  0  0  0  0  0  0  0
   27.1019   10.6299    5.5281 O   0  0  0  0  0  0  0  0  0  0  0  0
   29.1201   10.5397   11.1727 C   0  0  1  0  0  0  0  0  0  0  0  0
   28.0609    7.9647    5.4410 O   0  0  0  0  0  0  0  0  0  0  0  0
   28.0017    9.5274   10.9081 C   0  0  2  0  0  0  0  0  0  0  0  0
   27.0176    8.3552    9.0527 C   0  0  1  0  0  0  0  0  0  0  0  0
   26.3398   10.3179    7.8156 C   0  0  2  0  0  0  0  0  0  0  0  0
   25.1800   11.2915    7.5951 C   0  0  0  0  0  0  0  0  0  0  0  0
   26.6699    9.6504    6.4777 C   0  0  2  0  0  0  0  0  0  0  0  0
   27.7949    8.6332    6.6755 C   0  0  1  0  0  0  0  0  0  0  0  0
   27.3669    7.6283    7.7483 C   0  0  1  0  0  0  0  0  0  0  0  0
  5  4  1  1  0  0  0
  5  8  1  0  0  0  0
  5 16  1  0  0  0  0
  8  7  1  1  0  0  0
  8 10  1  0  0  0  0
 10  1  1  1  0  0  0
 10 12  1  0  0  0  0
 11 18  1  0  0  0  0
 12 14  1  0  0  0  0
 14  2  1  6  0  0  0
 14 16  1  0  0  0  0
 16  9  1  6  0  0  0
 17  9  1  6  0  0  0
 17 11  1  0  0  0  0
 17 22  1  0  0  0  0
 18 19  1  6  0  0  0
 18 20  1  0  0  0  0
 19  3  1  0  0  0  0
 20 13  1  6  0  0  0
 20 21  1  0  0  0  0
 21 15  1  6  0  0  0
 21 22  1  0  0  0  0
 22  6  1  1  0  0  0
M  END
>  <CHROM.1>
76.13591420,69.50176977,60.40353893,27.62130993,9.39281922,9.80394310,0.81751612
-1.19564578,0.85592466

>  <Name>
2fcx_lig

>  <RI>
1.15031e+07

>  <Rbt.Current_Directory>
/home/itssahil/PROJECTS/Mol_Feturizer/New_Systems/rnas/2fcx

>  <Rbt.Executable>
rbdock ($Id: //depot/dev/client3/rdock/2013.1/src/exe/rbdock.cxx#4 $)

>  <Rbt.Library>
libRbt.so (2013.1, Build901 2013/11/27)

>  <Rbt.Parameter_File>
/export/apps/rDock/src/rDock_2013.1_src/data/scripts/dock_solv.prm

>  <Rbt.Receptor>
prm/pocket_docking_8.prm

>  <SCORE>
-15.4982

>  <SCORE.INTER>
-13.6506

>  <SCORE.INTER.CONST>
1

>  <SCORE.INTER.POLAR>
-2.01341

>  <SCORE.INTER.ROT>
3

>  <SCORE.INTER.SOLV>
13.3208

>  <SCORE.INTER.VDW>
-12.4293

>  <SCORE.INTER.norm>
-0.620484

>  <SCORE.INTRA>
-1.84759

>  <SCORE.INTRA.DIHEDRAL>
-3.23076

>  <SCORE.INTRA.DIHEDRAL.0>
4.88619

>  <SCORE.INTRA.POLAR>
0

>  <SCORE.INTRA.POLAR.0>
0

>  <SCORE.INTRA.REPUL>
0

>  <SCORE.INTRA.REPUL.0>
0

>  <SCORE.INTRA.SOLV>
-0.41122

>  <SCORE.INTRA.SOLV.lig_0>
-73.8187

>  <SCORE.INTRA.VDW>
-0.0265983

>  <SCORE.INTRA.VDW.0>
-1.32335

>  <SCORE.INTRA.norm>
-0.0839813

>  <SCORE.RESTR>
0

>  <SCORE.RESTR.CAVITY>
0

>  <SCORE.RESTR.norm>
0

>  <SCORE.SYSTEM>
0

>  <SCORE.SYSTEM.CONST>
0

>  <SCORE.SYSTEM.DIHEDRAL>
0

>  <SCORE.SYSTEM.SOLV>
0

>  <SCORE.SYSTEM.norm>
0

>  <SCORE.heavy>
22

>  <SCORE.norm>
-0.704465

>  <RMSD>
7.741

$$$$
2fcx_lig
 OpenBabel11021811433D
libRbt.so/2013.1/901 2013/11/27
 22 23  0  0  0  0  0  0  0  0999 V2000
   24.6953    9.2190    6.2932 N   0  0  0  0  0  0  0  0  0  0  0  0
   28.8738   10.7468    8.3622 N   0  0  0  0  0  0  0  0  0  0  0  0
   28.1764   10.0995   12.6879 N   0  0  0  0  0  0  0  0  0  0  0  0
   24.6503   12.8488    9.5554 O   0  0  0  0  0  0  0  0  0  0  0  0
   25.3885   12.2654    8.4783 C   0  0  2  0  0  0  0  0  0  0  0  0
   27.7294   15.8734    9.8060 N   0  0  0  0  0  0  0  0  0  0  0  0
   23.3829   11.5537    7.3695 O   0  0  0  0  0  0  0  0  0  0  0  0
   24.6210   11.0717    7.9052 C   0  0  1  0  0  0  0  0  0  0  0  0
   27.5349   13.0510    9.3190 O   0  0  0  0  0  0  0  0  0  0  0  0
   25.4273   10.3903    6.7971 C   0  0  1  0  0  0  0  0  0  0  0  0
   27.4374   12.6283   11.6220 O   0  0  0  0  0  0  0  0  0  0  0  0
   26.7939    9.9402    7.3245 C   0  0  0  0  0  0  0  0  0  0  0  0
   31.0633   13.1892   12.0905 O   0  0  0  0  0  0  0  0  0  0  0  0
   27.5597   11.1583    7.8485 C   0  0  1  0  0  0  0  0  0  0  0  0
   30.1907   15.7596   11.2769 O   0  0  0  0  0  0  0  0  0  0  0  0
   26.7902   11.8745    8.9623 C   0  0  2  0  0  0  0  0  0  0  0  0
   27.1646   13.6000   10.5955 C   0  0  1  0  0  0  0  0  0  0  0  0
   28.8320   12.2857   11.7507 C   0  0  2  0  0  0  0  0  0  0  0  0
   29.0333   11.2782   12.8848 C   0  0  0  0  0  0  0  0  0  0  0  0
   29.6736   13.5282   12.0546 C   0  0  2  0  0  0  0  0  0  0  0  0
   29.4550   14.5759   10.9619 C   0  0  1  0  0  0  0  0  0  0  0  0
   27.9582   14.8838   10.8674 C   0  0  1  0  0  0  0  0  0  0  0  0
  5  4  1  1  0  0  0
  5  8  1  0  0  0  0
  5 16  1  0  0  0  0
  8  7  1  6  0  0  0
  8 10  1  0  0  0  0
 10  1  1  1  0  0  0
 10 12  1  0  0  0  0
 11 18  1  0  0  0  0
 12 14  1  0  0  0  0
 14  2  1  1  0  0  0
 14 16  1  0  0  0  0
 16  9  1  6  0  0  0
 17  9  1  6  0  0  0
 17 11  1  0  0  0  0
 17 22  1  0  0  0  0
 18 19  1  1  0  0  0
 18 20  1  0  0  0  0
 19  3  1  0  0  0  0
 20 13  1  6  0  0  0
 20 21  1  0  0  0  0
 21 15  1  1  0  0  0
 21 22  1  0  0  0  0
 22  6  1  6  0  0  0
M  END
>  <CHROM.1>
77.27652592,61.93350695,54.58191941,27.38612594,12.38014215,9.78582596,-2.62002302
-0.74017871,0.09259963

>  <Name>
2fcx_lig

>  <RI>
1.15031e+07

>  <Rbt.Current_Directory>
/home/itssahil/PROJECTS/Mol_Feturizer/New_Systems/rnas/2fcx

>  <Rbt.Executable>
rbdock ($Id: //depot/dev/client3/rdock/2013.1/src/exe/rbdock.cxx#4 $)

>  <Rbt.Library>
libRbt.so (2013.1, Build901 2013/11/27)

>  <Rbt.Parameter_File>
/export/apps/rDock/src/rDock_2013.1_src/data/scripts/dock_solv.prm

>  <Rbt.Receptor>
prm/pocket_docking_8.prm

>  <SCORE>
-12.1051

>  <SCORE.INTER>
-10.1411

>  <SCORE.INTER.CONST>
1

>  <SCORE.INTER.POLAR>
-1.87422

>  <SCORE.INTER.ROT>
3

>  <SCORE.INTER.SOLV>
12.1161

>  <SCORE.INTER.VDW>
-10.152

>  <SCORE.INTER.norm>
-0.460958

>  <SCORE.INTRA>
-1.96406

>  <SCORE.INTRA.DIHEDRAL>
-3.37584

>  <SCORE.INTRA.DIHEDRAL.0>
4.88619

>  <SCORE.INTRA.POLAR>
0

>  <SCORE.INTRA.POLAR.0>
0

>  <SCORE.INTRA.REPUL>
0

>  <SCORE.INTRA.REPUL.0>
0

>  <SCORE.INTRA.SOLV>
-0.393135

>  <SCORE.INTRA.SOLV.lig_0>
-73.8187

>  <SCORE.INTRA.VDW>
-0.0795767

>  <SCORE.INTRA.VDW.0>
-1.32335

>  <SCORE.INTRA.norm>
-0.0892757

>  <SCORE.RESTR>
0

>  <SCORE.RESTR.CAVITY>
0

>  <SCORE.RESTR.norm>
0

>  <SCORE.SYSTEM>
0

>  <SCORE.SYSTEM.CONST>
0

>  <SCORE.SYSTEM.DIHEDRAL>
0

>  <SCORE.SYSTEM.SOLV>
0

>  <SCORE.SYSTEM.norm>
0

>  <SCORE.heavy>
22

>  <SCORE.norm>
-0.550234

>  <RMSD>
7.749

$$$$
2fcx_lig
 OpenBabel11021811433D
libRbt.so/2013.1/901 2013/11/27
 22 23  0  0  0  0  0  0  0  0999 V2000
   35.4627   16.3599   10.7368 N   0  0  0  0  0  0  0  0  0  0  0  0
   34.0853   14.1828   14.9127 N   0  0  0  0  0  0  0  0  0  0  0  0
   29.8093   12.6020   15.0913 N   0  0  0  0  0  0  0  0  0  0  0  0
   31.5125   17.9154   13.1442 O   0  0  0  0  0  0  0  0  0  0  0  0
   32.8343   17.3916   13.2986 C   0  0  2  0  0  0  0  0  0  0  0  0
   31.4831   18.5994   17.0016 N   0  0  0  0  0  0  0  0  0  0  0  0
   33.5998   18.4896   11.3069 O   0  0  0  0  0  0  0  0  0  0  0  0
   33.4851   17.2030   11.9262 C   0  0  1  0  0  0  0  0  0  0  0  0
   32.3365   16.3461   15.4411 O   0  0  0  0  0  0  0  0  0  0  0  0
   34.8746   16.5771   12.0667 C   0  0  1  0  0  0  0  0  0  0  0  0
   30.1541   15.4925   15.4222 O   0  0  0  0  0  0  0  0  0  0  0  0
   34.7892   15.2361   12.8035 C   0  0  0  0  0  0  0  0  0  0  0  0
   30.3751   14.2783   18.9091 O   0  0  0  0  0  0  0  0  0  0  0  0
   34.1787   15.4591   14.1900 C   0  0  1  0  0  0  0  0  0  0  0  0
   30.5932   17.0808   19.2678 O   0  0  0  0  0  0  0  0  0  0  0  0
   32.7839   16.0852   14.1002 C   0  0  2  0  0  0  0  0  0  0  0  0
   30.9433   16.6922   15.5246 C   0  0  1  0  0  0  0  0  0  0  0  0
   30.3727   14.5525   16.4934 C   0  0  2  0  0  0  0  0  0  0  0  0
   29.4700   13.3285   16.3240 C   0  0  0  0  0  0  0  0  0  0  0  0
   30.0684   15.1917   17.8511 C   0  0  2  0  0  0  0  0  0  0  0  0
   30.9215   16.4487   18.0292 C   0  0  1  0  0  0  0  0  0  0  0  0
   30.6538   17.3956   16.8563 C   0  0  1  0  0  0  0  0  0  0  0  0
  5  4  1  6  0  0  0
  5  8  1  0  0  0  0
  5 16  1  0  0  0  0
  8  7  1  1  0  0  0
  8 10  1  0  0  0  0
 10  1  1  6  0  0  0
 10 12  1  0  0  0  0
 11 18  1  0  0  0  0
 12 14  1  0  0  0  0
 14  2  1  6  0  0  0
 14 16  1  0  0  0  0
 16  9  1  1  0  0  0
 17  9  1  1  0  0  0
 17 11  1  0  0  0  0
 17 22  1  0  0  0  0
 18 19  1  6  0  0  0
 18 20  1  0  0  0  0
 19  3  1  0  0  0  0
 20 13  1  1  0  0  0
 20 21  1  0  0  0  0
 21 15  1  1  0  0  0
 21 22  1  0  0  0  0
 22  6  1  1  0  0  0
M  END
>  <CHROM.1>
71.03436874,78.18601847,63.67887201,32.00997375,16.05438696,15.05279345,-0.09797618
-0.97381121,-3.00105834

>  <Name>
2fcx_lig

>  <RI>
4.08374e+07

>  <Rbt.Current_Directory>
/home/itssahil/PROJECTS/Mol_Feturizer/New_Systems/rnas/2fcx

>  <Rbt.Executable>
rbdock ($Id: //depot/dev/client3/rdock/2013.1/src/exe/rbdock.cxx#4 $)

>  <Rbt.Library>
libRbt.so (2013.1, Build901 2013/11/27)

>  <Rbt.Parameter_File>
/export/apps/rDock/src/rDock_2013.1_src/data/scripts/dock_solv.prm

>  <Rbt.Receptor>
prm/pocket_docking_7.prm

>  <SCORE>
-11.8627

>  <SCORE.INTER>
-10.5447

>  <SCORE.INTER.CONST>
1

>  <SCORE.INTER.POLAR>
-0.918297

>  <SCORE.INTER.ROT>
3

>  <SCORE.INTER.SOLV>
14.84

>  <SCORE.INTER.VDW>
-14.5154

>  <SCORE.INTER.norm>
-0.479303

>  <SCORE.INTRA>
-1.31885

>  <SCORE.INTRA.DIHEDRAL>
-2.73465

>  <SCORE.INTRA.DIHEDRAL.0>
4.88619

>  <SCORE.INTRA.POLAR>
0

>  <SCORE.INTRA.POLAR.0>
0

>  <SCORE.INTRA.REPUL>
0

>  <SCORE.INTRA.REPUL.0>
0

>  <SCORE.INTRA.SOLV>
-0.501948

>  <SCORE.INTRA.SOLV.lig_0>
-73.8187

>  <SCORE.INTRA.VDW>
0.299448

>  <SCORE.INTRA.VDW.0>
-1.32335

>  <SCORE.INTRA.norm>
-0.0599478

>  <SCORE.RESTR>
0.000795647

>  <SCORE.RESTR.CAVITY>
0.000795647

>  <SCORE.RESTR.norm>
3.61658e-05

>  <SCORE.SYSTEM>
0

>  <SCORE.SYSTEM.CONST>
0

>  <SCORE.SYSTEM.DIHEDRAL>
0

>  <SCORE.SYSTEM.SOLV>
0

>  <SCORE.SYSTEM.norm>
0

>  <SCORE.heavy>
22

>  <SCORE.norm>
-0.539214

>  <RMSD>
7.756

$$$$
2fcx_lig
 OpenBabel11021811433D
libRbt.so/2013.1/901 2013/11/27
 22 23  0  0  0  0  0  0  0  0999 V2000
   27.8959    9.0470   14.7590 N   0  0  0  0  0  0  0  0  0  0  0  0
   29.1989   13.7770   14.8164 N   0  0  0  0  0  0  0  0  0  0  0  0
   26.2173   14.3201   10.8644 N   0  0  0  0  0  0  0  0  0  0  0  0
   29.4874   11.2175   10.6878 O   0  0  0  0  0  0  0  0  0  0  0  0
   29.6536   11.1470   12.1065 C   0  0  2  0  0  0  0  0  0  0  0  0
   32.7068   14.5948   10.9710 N   0  0  0  0  0  0  0  0  0  0  0  0
   29.1002    8.8124   12.1464 O   0  0  0  0  0  0  0  0  0  0  0  0
   28.7211   10.0826   12.6895 C   0  0  1  0  0  0  0  0  0  0  0  0
   30.4263   13.4496   12.2858 O   0  0  0  0  0  0  0  0  0  0  0  0
   28.8331   10.0407   14.2152 C   0  0  1  0  0  0  0  0  0  0  0  0
   29.0635   13.9836   10.4557 O   0  0  0  0  0  0  0  0  0  0  0  0
   28.5144   11.4138   14.8165 C   0  0  0  0  0  0  0  0  0  0  0  0
   28.8910   17.5655   11.3624 O   0  0  0  0  0  0  0  0  0  0  0  0
   29.4901   12.4510   14.2535 C   0  0  1  0  0  0  0  0  0  0  0  0
   31.6489   17.2560   10.7892 O   0  0  0  0  0  0  0  0  0  0  0  0
   29.4137   12.5293   12.7259 C   0  0  2  0  0  0  0  0  0  0  0  0
   30.4104   13.6859   10.8674 C   0  0  1  0  0  0  0  0  0  0  0  0
   28.5216   15.1839   11.0427 C   0  0  2  0  0  0  0  0  0  0  0  0
   27.1053   15.4415   10.5234 C   0  0  0  0  0  0  0  0  0  0  0  0
   29.3888   16.3985   10.7006 C   0  0  2  0  0  0  0  0  0  0  0  0
   30.8252   16.1502   11.1638 C   0  0  1  0  0  0  0  0  0  0  0  0
   31.3345   14.8589   10.5180 C   0  0  1  0  0  0  0  0  0  0  0  0
  5  4  1  6  0  0  0
  5  8  1  0  0  0  0
  5 16  1  0  0  0  0
  8  7  1  6  0  0  0
  8 10  1  0  0  0  0
 10  1  1  1  0  0  0
 10 12  1  0  0  0  0
 11 18  1  0  0  0  0
 12 14  1  0  0  0  0
 14  2  1  1  0  0  0
 14 16  1  0  0  0  0
 16  9  1  6  0  0  0
 17  9  1  1  0  0  0
 17 11  1  0  0  0  0
 17 22  1  0  0  0  0
 18 19  1  6  0  0  0
 18 20  1  0  0  0  0
 19  3  1  0  0  0  0
 20 13  1  1  0  0  0
 20 21  1  0  0  0  0
 21 15  1  6  0  0  0
 21 22  1  0  0  0  0
 22  6  1  1  0  0  0
M  END
>  <CHROM.1>
63.39840633,48.90487791,60.14409890,29.40795169,13.35390188,12.00609018,1.76246023
-0.12490791,2.74926748

>  <Name>
2fcx_lig

>  <RI>
0

>  <Rbt.Current_Directory>
/home/itssahil/PROJECTS/Mol_Feturizer/New_Systems/rnas/2fcx

>  <Rbt.Executable>
rbdock ($Id: //depot/dev/client3/rdock/2013.1/src/exe/rbdock.cxx#4 $)

>  <Rbt.Library>
libRbt.so (2013.1, Build901 2013/11/27)

>  <Rbt.Parameter_File>
/export/apps/rDock/src/rDock_2013.1_src/data/scripts/dock_solv.prm

>  <Rbt.Receptor>
prm/pocket_docking_6.prm

>  <SCORE>
-8.87543

>  <SCORE.INTER>
-7.64871

>  <SCORE.INTER.CONST>
1

>  <SCORE.INTER.POLAR>
-0.905821

>  <SCORE.INTER.ROT>
3

>  <SCORE.INTER.SOLV>
13.173

>  <SCORE.INTER.VDW>
-12.0707

>  <SCORE.INTER.norm>
-0.347669

>  <SCORE.INTRA>
-1.22691

>  <SCORE.INTRA.DIHEDRAL>
-4.23024

>  <SCORE.INTRA.DIHEDRAL.0>
4.88619

>  <SCORE.INTRA.POLAR>
0

>  <SCORE.INTRA.POLAR.0>
0

>  <SCORE.INTRA.REPUL>
0

>  <SCORE.INTRA.REPUL.0>
0

>  <SCORE.INTRA.SOLV>
-0.694137

>  <SCORE.INTRA.SOLV.lig_0>
-73.8187

>  <SCORE.INTRA.VDW>
1.23528

>  <SCORE.INTRA.VDW.0>
-1.32335

>  <SCORE.INTRA.norm>
-0.0557687

>  <SCORE.RESTR>
0.000195059

>  <SCORE.RESTR.CAVITY>
0.000195059

>  <SCORE.RESTR.norm>
8.8663e-06

>  <SCORE.SYSTEM>
0

>  <SCORE.SYSTEM.CONST>
0

>  <SCORE.SYSTEM.DIHEDRAL>
0

>  <SCORE.SYSTEM.SOLV>
0

>  <SCORE.SYSTEM.norm>
0

>  <SCORE.heavy>
22

>  <SCORE.norm>
-0.403428

>  <RMSD>
7.769

$$$$
2fcx_lig
 OpenBabel11021811433D
libRbt.so/2013.1/901 2013/11/27
 22 23  0  0  0  0  0  0  0  0999 V2000
   28.0890    9.0404   14.8995 N   0  0  0  0  0  0  0  0  0  0  0  0
   29.1191   13.8360   14.7743 N   0  0  0  0  0  0  0  0  0  0  0  0
   26.1756   14.3797   10.9336 N   0  0  0  0  0  0  0  0  0  0  0  0
   29.6189   11.1283   10.7620 O   0  0  0  0  0  0  0  0  0  0  0  0
   29.7662   11.1264   12.1845 C   0  0  2  0  0  0  0  0  0  0  0  0
   32.6705   14.5708   10.8982 N   0  0  0  0  0  0  0  0  0  0  0  0
   29.3462    8.7675   12.3157 O   0  0  0  0  0  0  0  0  0  0  0  0
   28.8867   10.0351   12.7993 C   0  0  1  0  0  0  0  0  0  0  0  0
   30.4034   13.4752   12.2766 O   0  0  0  0  0  0  0  0  0  0  0  0
   28.9766   10.0631   14.3269 C   0  0  1  0  0  0  0  0  0  0  0  0
   29.0103   13.9973   10.4660 O   0  0  0  0  0  0  0  0  0  0  0  0
   28.5706   11.4392   14.8651 C   0  0  0  0  0  0  0  0  0  0  0  0
   28.9000   17.5949   11.3186 O   0  0  0  0  0  0  0  0  0  0  0  0
   29.4944   12.5067   14.2720 C   0  0  1  0  0  0  0  0  0  0  0  0
   31.6417   17.2419   10.6951 O   0  0  0  0  0  0  0  0  0  0  0  0
   29.4380   12.5171   12.7415 C   0  0  2  0  0  0  0  0  0  0  0  0
   30.3616   13.6893   10.8553 C   0  0  1  0  0  0  0  0  0  0  0  0
   28.4951   15.2134   11.0445 C   0  0  2  0  0  0  0  0  0  0  0  0
   27.0719   15.4805   10.5498 C   0  0  0  0  0  0  0  0  0  0  0  0
   29.3700   16.4115   10.6657 C   0  0  2  0  0  0  0  0  0  0  0  0
   30.8124   16.1526   11.1039 C   0  0  1  0  0  0  0  0  0  0  0  0
   31.2926   14.8450   10.4687 C   0  0  1  0  0  0  0  0  0  0  0  0
  5  4  1  6  0  0  0
  5  8  1  0  0  0  0
  5 16  1  0  0  0  0
  8  7  1  6  0  0  0
  8 10  1  0  0  0  0
 10  1  1  1  0  0  0
 10 12  1  0  0  0  0
 11 18  1  0  0  0  0
 12 14  1  0  0  0  0
 14  2  1  1  0  0  0
 14 16  1  0  0  0  0
 16  9  1  6  0  0  0
 17  9  1  1  0  0  0
 17 11  1  0  0  0  0
 17 22  1  0  0  0  0
 18 19  1  6  0  0  0
 18 20  1  0  0  0  0
 19  3  1  0  0  0  0
 20 13  1  1  0  0  0
 20 21  1  0  0  0  0
 21 15  1  6  0  0  0
 21 22  1  0  0  0  0
 22  6  1  1  0  0  0
M  END
>  <CHROM.1>
65.66608854,52.22892743,60.48539121,29.43886689,13.35803381,12.02679665,1.72883824
-0.23379672,2.74414900

>  <Name>
2fcx_lig

>  <RI>
1.15031e+07

>  <Rbt.Current_Directory>
/home/itssahil/PROJECTS/Mol_Feturizer/New_Systems/rnas/2fcx

>  <Rbt.Executable>
rbdock ($Id: //depot/dev/client3/rdock/2013.1/src/exe/rbdock.cxx#4 $)

>  <Rbt.Library>
libRbt.so (2013.1, Build901 2013/11/27)

>  <Rbt.Parameter_File>
/export/apps/rDock/src/rDock_2013.1_src/data/scripts/dock_solv.prm

>  <Rbt.Receptor>
prm/pocket_docking_8.prm

>  <SCORE>
-9.57774

>  <SCORE.INTER>
-7.8966

>  <SCORE.INTER.CONST>
1

>  <SCORE.INTER.POLAR>
-1.08567

>  <SCORE.INTER.ROT>
3

>  <SCORE.INTER.SOLV>
14.0272

>  <SCORE.INTER.VDW>
-11.9212

>  <SCORE.INTER.norm>
-0.358937

>  <SCORE.INTRA>
-1.68113

>  <SCORE.INTRA.DIHEDRAL>
-4.42579

>  <SCORE.INTRA.DIHEDRAL.0>
4.88619

>  <SCORE.INTRA.POLAR>
0

>  <SCORE.INTRA.POLAR.0>
0

>  <SCORE.INTRA.REPUL>
0

>  <SCORE.INTRA.REPUL.0>
0

>  <SCORE.INTRA.SOLV>
-0.73822

>  <SCORE.INTRA.SOLV.lig_0>
-73.8187

>  <SCORE.INTRA.VDW>
0.900869

>  <SCORE.INTRA.VDW.0>
-1.32335

>  <SCORE.INTRA.norm>
-0.0764152

>  <SCORE.RESTR>
0

>  <SCORE.RESTR.CAVITY>
0

>  <SCORE.RESTR.norm>
0

>  <SCORE.SYSTEM>
0

>  <SCORE.SYSTEM.CONST>
0

>  <SCORE.SYSTEM.DIHEDRAL>
0

>  <SCORE.SYSTEM.SOLV>
0

>  <SCORE.SYSTEM.norm>
0

>  <SCORE.heavy>
22

>  <SCORE.norm>
-0.435352

>  <RMSD>
7.781

$$$$
2fcx_lig
 OpenBabel11021811433D
libRbt.so/2013.1/901 2013/11/27
 22 23  0  0  0  0  0  0  0  0999 V2000
   28.2962    7.9190   14.0931 N   0  0  0  0  0  0  0  0  0  0  0  0
   28.9102   10.9291   10.2673 N   0  0  0  0  0  0  0  0  0  0  0  0
   25.6341   13.2430    8.4219 N   0  0  0  0  0  0  0  0  0  0  0  0
   28.9098   12.7094   14.7961 O   0  0  0  0  0  0  0  0  0  0  0  0
   28.3199   11.7283   13.9388 C   0  0  2  0  0  0  0  0  0  0  0  0
   30.7348   14.8842   12.1075 N   0  0  0  0  0  0  0  0  0  0  0  0
   27.9180   10.2350   15.7736 O   0  0  0  0  0  0  0  0  0  0  0  0
   28.5684   10.3265   14.5006 C   0  0  1  0  0  0  0  0  0  0  0  0
   28.4527   13.1487   11.9649 O   0  0  0  0  0  0  0  0  0  0  0  0
   28.0055    9.2582   13.5604 C   0  0  1  0  0  0  0  0  0  0  0  0
   28.2449   13.5585    9.6670 O   0  0  0  0  0  0  0  0  0  0  0  0
   28.6244    9.3890   12.1646 C   0  0  0  0  0  0  0  0  0  0  0  0
   26.7671   16.9094   10.1857 O   0  0  0  0  0  0  0  0  0  0  0  0
   28.3218   10.7823   11.6060 C   0  0  1  0  0  0  0  0  0  0  0  0
   29.3639   17.2599   11.2645 O   0  0  0  0  0  0  0  0  0  0  0  0
   28.8677   11.8873   12.5152 C   0  0  2  0  0  0  0  0  0  0  0  0
   29.1663   13.5177   10.7723 C   0  0  1  0  0  0  0  0  0  0  0  0
   27.2060   14.5487    9.8047 C   0  0  2  0  0  0  0  0  0  0  0  0
   26.2977   14.5466    8.5730 C   0  0  0  0  0  0  0  0  0  0  0  0
   27.8041   15.9496    9.9601 C   0  0  2  0  0  0  0  0  0  0  0  0
   28.7571   15.9708   11.1563 C   0  0  1  0  0  0  0  0  0  0  0  0
   29.8237   14.8911   10.9551 C   0  0  1  0  0  0  0  0  0  0  0  0
  5  4  1  1  0  0  0
  5  8  1  0  0  0  0
  5 16  1  0  0  0  0
  8  7  1  1  0  0  0
  8 10  1  0  0  0  0
 10  1  1  1  0  0  0
 10 12  1  0  0  0  0
 11 18  1  0  0  0  0
 12 14  1  0  0  0  0
 14  2  1  6  0  0  0
 14 16  1  0  0  0  0
 16  9  1  6  0  0  0
 17  9  1  1  0  0  0
 17 11  1  0  0  0  0
 17 22  1  0  0  0  0
 18 19  1  6  0  0  0
 18 20  1  0  0  0  0
 19  3  1  0  0  0  0
 20 13  1  1  0  0  0
 20 21  1  0  0  0  0
 21 15  1  6  0  0  0
 21 22  1  0  0  0  0
 22  6  1  1  0  0  0
M  END
>  <CHROM.1>
166.31911797,115.51331613,61.64412927,28.31091099,12.93218828,11.74564155
1.42560797,1.05459068,2.67164092

>  <Name>
2fcx_lig

>  <RI>
4.08374e+07

>  <Rbt.Current_Directory>
/home/itssahil/PROJECTS/Mol_Feturizer/New_Systems/rnas/2fcx

>  <Rbt.Executable>
rbdock ($Id: //depot/dev/client3/rdock/2013.1/src/exe/rbdock.cxx#4 $)

>  <Rbt.Library>
libRbt.so (2013.1, Build901 2013/11/27)

>  <Rbt.Parameter_File>
/export/apps/rDock/src/rDock_2013.1_src/data/scripts/dock_solv.prm

>  <Rbt.Receptor>
prm/pocket_docking_7.prm

>  <SCORE>
-11.8938

>  <SCORE.INTER>
-14.8439

>  <SCORE.INTER.CONST>
1

>  <SCORE.INTER.POLAR>
-2.32921

>  <SCORE.INTER.ROT>
3

>  <SCORE.INTER.SOLV>
12.9865

>  <SCORE.INTER.VDW>
-12.0607

>  <SCORE.INTER.norm>
-0.674722

>  <SCORE.INTRA>
2.95013

>  <SCORE.INTRA.DIHEDRAL>
3.11434

>  <SCORE.INTRA.DIHEDRAL.0>
4.88619

>  <SCORE.INTRA.POLAR>
0

>  <SCORE.INTRA.POLAR.0>
0

>  <SCORE.INTRA.REPUL>
0

>  <SCORE.INTRA.REPUL.0>
0

>  <SCORE.INTRA.SOLV>
1.31934

>  <SCORE.INTRA.SOLV.lig_0>
-73.8187

>  <SCORE.INTRA.VDW>
0.733288

>  <SCORE.INTRA.VDW.0>
-1.32335

>  <SCORE.INTRA.norm>
0.134097

>  <SCORE.RESTR>
0

>  <SCORE.RESTR.CAVITY>
0

>  <SCORE.RESTR.norm>
0

>  <SCORE.SYSTEM>
0

>  <SCORE.SYSTEM.CONST>
0

>  <SCORE.SYSTEM.DIHEDRAL>
0

>  <SCORE.SYSTEM.SOLV>
0

>  <SCORE.SYSTEM.norm>
0

>  <SCORE.heavy>
22

>  <SCORE.norm>
-0.540625

>  <RMSD>
7.894

$$$$
2fcx_lig
 OpenBabel11021811433D
libRbt.so/2013.1/901 2013/11/27
 22 23  0  0  0  0  0  0  0  0999 V2000
   28.5830    8.0274   14.2858 N   0  0  0  0  0  0  0  0  0  0  0  0
   29.0991   11.1442   10.5316 N   0  0  0  0  0  0  0  0  0  0  0  0
   27.2310   14.6348    8.5194 N   0  0  0  0  0  0  0  0  0  0  0  0
   31.1279   12.1551   14.8377 O   0  0  0  0  0  0  0  0  0  0  0  0
   29.9851   11.5718   14.2058 C   0  0  2  0  0  0  0  0  0  0  0  0
   32.4658   14.4008   11.4791 N   0  0  0  0  0  0  0  0  0  0  0  0
   29.6247   10.0684   16.0409 O   0  0  0  0  0  0  0  0  0  0  0  0
   29.8466   10.1068   14.6263 C   0  0  1  0  0  0  0  0  0  0  0  0
   30.0403   13.1209   12.3273 O   0  0  0  0  0  0  0  0  0  0  0  0
   28.6698    9.4450   13.9056 C   0  0  1  0  0  0  0  0  0  0  0  0
   29.0331   13.5917   10.2644 O   0  0  0  0  0  0  0  0  0  0  0  0
   28.8418    9.5481   12.3863 C   0  0  0  0  0  0  0  0  0  0  0  0
   28.4868   17.1516   11.1067 O   0  0  0  0  0  0  0  0  0  0  0  0
   28.9307   11.0236   11.9867 C   0  0  1  0  0  0  0  0  0  0  0  0
   31.3164   17.0003   11.0844 O   0  0  0  0  0  0  0  0  0  0  0  0
   30.0970   11.7298   12.6844 C   0  0  2  0  0  0  0  0  0  0  0  0
   30.2883   13.3664   10.9324 C   0  0  1  0  0  0  0  0  0  0  0  0
   28.3208   14.7556   10.7298 C   0  0  2  0  0  0  0  0  0  0  0  0
   27.0210   14.9378    9.9430 C   0  0  0  0  0  0  0  0  0  0  0  0
   29.1687   16.0190   10.5592 C   0  0  2  0  0  0  0  0  0  0  0  0
   30.4987   15.8477   11.2950 C   0  0  1  0  0  0  0  0  0  0  0  0
   31.1957   14.5914   10.7659 C   0  0  1  0  0  0  0  0  0  0  0  0
  5  4  1  1  0  0  0
  5  8  1  0  0  0  0
  5 16  1  0  0  0  0
  8  7  1  1  0  0  0
  8 10  1  0  0  0  0
 10  1  1  6  0  0  0
 10 12  1  0  0  0  0
 11 18  1  0  0  0  0
 12 14  1  0  0  0  0
 14  2  1  6  0  0  0
 14 16  1  0  0  0  0
 16  9  1  1  0  0  0
 17  9  1  1  0  0  0
 17 11  1  0  0  0  0
 17 22  1  0  0  0  0
 18 19  1  6  0  0  0
 18 20  1  0  0  0  0
 19  3  1  0  0  0  0
 20 13  1  1  0  0  0
 20 21  1  0  0  0  0
 21 15  1  6  0  0  0
 21 22  1  0  0  0  0
 22  6  1  1  0  0  0
M  END
>  <CHROM.1>
173.42840316,101.36386960,-39.92345022,29.54969580,12.95796400,12.04049108
1.56336277,0.70015234,2.57406865

>  <Name>
2fcx_lig

>  <RI>
4.08374e+07

>  <Rbt.Current_Directory>
/home/itssahil/PROJECTS/Mol_Feturizer/New_Systems/rnas/2fcx

>  <Rbt.Executable>
rbdock ($Id: //depot/dev/client3/rdock/2013.1/src/exe/rbdock.cxx#4 $)

>  <Rbt.Library>
libRbt.so (2013.1, Build901 2013/11/27)

>  <Rbt.Parameter_File>
/export/apps/rDock/src/rDock_2013.1_src/data/scripts/dock_solv.prm

>  <Rbt.Receptor>
prm/pocket_docking_7.prm

>  <SCORE>
-10.5199

>  <SCORE.INTER>
-15.4484

>  <SCORE.INTER.CONST>
1

>  <SCORE.INTER.POLAR>
-2.2977

>  <SCORE.INTER.ROT>
3

>  <SCORE.INTER.SOLV>
19.2273

>  <SCORE.INTER.VDW>
-14.649

>  <SCORE.INTER.norm>
-0.702198

>  <SCORE.INTRA>
4.92851

>  <SCORE.INTRA.DIHEDRAL>
2.26587

>  <SCORE.INTRA.DIHEDRAL.0>
4.88619

>  <SCORE.INTRA.POLAR>
0

>  <SCORE.INTRA.POLAR.0>
0

>  <SCORE.INTRA.REPUL>
0

>  <SCORE.INTRA.REPUL.0>
0

>  <SCORE.INTRA.SOLV>
2.68571

>  <SCORE.INTRA.SOLV.lig_0>
-73.8187

>  <SCORE.INTRA.VDW>
2.45272

>  <SCORE.INTRA.VDW.0>
-1.32335

>  <SCORE.INTRA.norm>
0.224023

>  <SCORE.RESTR>
0

>  <SCORE.RESTR.CAVITY>
0

>  <SCORE.RESTR.norm>
0

>  <SCORE.SYSTEM>
0

>  <SCORE.SYSTEM.CONST>
0

>  <SCORE.SYSTEM.DIHEDRAL>
0

>  <SCORE.SYSTEM.SOLV>
0

>  <SCORE.SYSTEM.norm>
0

>  <SCORE.heavy>
22

>  <SCORE.norm>
-0.478175

>  <RMSD>
7.922

$$$$
2fcx_lig
 OpenBabel11021811433D
libRbt.so/2013.1/901 2013/11/27
 22 23  0  0  0  0  0  0  0  0999 V2000
   28.2097    7.9486   13.8856 N   0  0  0  0  0  0  0  0  0  0  0  0
   28.8456   11.1107   10.1882 N   0  0  0  0  0  0  0  0  0  0  0  0
   25.6823   13.2506    8.4138 N   0  0  0  0  0  0  0  0  0  0  0  0
   28.9474   12.6873   14.7908 O   0  0  0  0  0  0  0  0  0  0  0  0
   28.3230   11.7594   13.8994 C   0  0  2  0  0  0  0  0  0  0  0  0
   30.6583   15.1038   12.1769 N   0  0  0  0  0  0  0  0  0  0  0  0
   27.9094   10.1957   15.6720 O   0  0  0  0  0  0  0  0  0  0  0  0
   28.5450   10.3285   14.3952 C   0  0  1  0  0  0  0  0  0  0  0  0
   28.4639   13.2626   11.9885 O   0  0  0  0  0  0  0  0  0  0  0  0
   27.9443    9.3166   13.4168 C   0  0  1  0  0  0  0  0  0  0  0  0
   28.2735   13.6756    9.6896 O   0  0  0  0  0  0  0  0  0  0  0  0
   28.5478    9.4948   12.0195 C   0  0  0  0  0  0  0  0  0  0  0  0
   26.6297   16.9493   10.2013 O   0  0  0  0  0  0  0  0  0  0  0  0
   28.2715   10.9183   11.5274 C   0  0  1  0  0  0  0  0  0  0  0  0
   29.1893   17.4166   11.3239 O   0  0  0  0  0  0  0  0  0  0  0  0
   28.8556   11.9687   12.4766 C   0  0  2  0  0  0  0  0  0  0  0  0
   29.1781   13.6721   10.8095 C   0  0  1  0  0  0  0  0  0  0  0  0
   27.1865   14.6145    9.8155 C   0  0  2  0  0  0  0  0  0  0  0  0
   26.2992   14.5763    8.5693 C   0  0  0  0  0  0  0  0  0  0  0  0
   27.7147   16.0412    9.9877 C   0  0  2  0  0  0  0  0  0  0  0  0
   28.6465   16.1007   11.1993 C   0  0  1  0  0  0  0  0  0  0  0  0
   29.7664   15.0741   11.0099 C   0  0  1  0  0  0  0  0  0  0  0  0
  5  4  1  1  0  0  0
  5  8  1  0  0  0  0
  5 16  1  0  0  0  0
  8  7  1  1  0  0  0
  8 10  1  0  0  0  0
 10  1  1  1  0  0  0
 10 12  1  0  0  0  0
 11 18  1  0  0  0  0
 12 14  1  0  0  0  0
 14  2  1  6  0  0  0
 14 16  1  0  0  0  0
 16  9  1  6  0  0  0
 17  9  1  1  0  0  0
 17 11  1  0  0  0  0
 17 22  1  0  0  0  0
 18 19  1  6  0  0  0
 18 20  1  0  0  0  0
 19  3  1  0  0  0  0
 20 13  1  1  0  0  0
 20 21  1  0  0  0  0
 21 15  1  6  0  0  0
 21 22  1  0  0  0  0
 22  6  1  1  0  0  0
M  END
>  <CHROM.1>
165.84932965,110.76188324,62.63434048,28.26970909,13.01617040,11.71973952
1.42474622,1.06261167,2.69943668

>  <Name>
2fcx_lig

>  <RI>
1.15031e+07

>  <Rbt.Current_Directory>
/home/itssahil/PROJECTS/Mol_Feturizer/New_Systems/rnas/2fcx

>  <Rbt.Executable>
rbdock ($Id: //depot/dev/client3/rdock/2013.1/src/exe/rbdock.cxx#4 $)

>  <Rbt.Library>
libRbt.so (2013.1, Build901 2013/11/27)

>  <Rbt.Parameter_File>
/export/apps/rDock/src/rDock_2013.1_src/data/scripts/dock_solv.prm

>  <Rbt.Receptor>
prm/pocket_docking_8.prm

>  <SCORE>
-11.913

>  <SCORE.INTER>
-14.8892

>  <SCORE.INTER.CONST>
1

>  <SCORE.INTER.POLAR>
-2.32551

>  <SCORE.INTER.ROT>
3

>  <SCORE.INTER.SOLV>
12.6324

>  <SCORE.INTER.VDW>
-11.9852

>  <SCORE.INTER.norm>
-0.676781

>  <SCORE.INTRA>
2.97614

>  <SCORE.INTRA.DIHEDRAL>
2.87403

>  <SCORE.INTRA.DIHEDRAL.0>
4.88619

>  <SCORE.INTRA.POLAR>
0

>  <SCORE.INTRA.POLAR.0>
0

>  <SCORE.INTRA.REPUL>
0

>  <SCORE.INTRA.REPUL.0>
0

>  <SCORE.INTRA.SOLV>
1.60891

>  <SCORE.INTRA.SOLV.lig_0>
-73.8187

>  <SCORE.INTRA.VDW>
0.734671

>  <SCORE.INTRA.VDW.0>
-1.32335

>  <SCORE.INTRA.norm>
0.135279

>  <SCORE.RESTR>
0

>  <SCORE.RESTR.CAVITY>
0

>  <SCORE.RESTR.norm>
0

>  <SCORE.SYSTEM>
0

>  <SCORE.SYSTEM.CONST>
0

>  <SCORE.SYSTEM.DIHEDRAL>
0

>  <SCORE.SYSTEM.SOLV>
0

>  <SCORE.SYSTEM.norm>
0

>  <SCORE.heavy>
22

>  <SCORE.norm>
-0.541501

>  <RMSD>
7.924

$$$$
2fcx_lig
 OpenBabel11021811433D
libRbt.so/2013.1/901 2013/11/27
 22 23  0  0  0  0  0  0  0  0999 V2000
   28.4107    8.0022   14.1007 N   0  0  0  0  0  0  0  0  0  0  0  0
   28.9949   11.1251   10.3617 N   0  0  0  0  0  0  0  0  0  0  0  0
   26.0699   16.2065   10.2442 N   0  0  0  0  0  0  0  0  0  0  0  0
   30.6394   12.2888   14.7913 O   0  0  0  0  0  0  0  0  0  0  0  0
   29.5849   11.6294   14.0852 C   0  0  2  0  0  0  0  0  0  0  0  0
   32.2112   14.3476   11.5509 N   0  0  0  0  0  0  0  0  0  0  0  0
   29.1904   10.1159   15.9051 O   0  0  0  0  0  0  0  0  0  0  0  0
   29.5106   10.1607   14.5096 C   0  0  1  0  0  0  0  0  0  0  0  0
   29.6757   13.1684   12.1999 O   0  0  0  0  0  0  0  0  0  0  0  0
   28.4336    9.4203   13.7133 C   0  0  1  0  0  0  0  0  0  0  0  0
   28.8405   13.7213   10.0813 O   0  0  0  0  0  0  0  0  0  0  0  0
   28.7076    9.5260   12.2093 C   0  0  0  0  0  0  0  0  0  0  0  0
   28.3982   17.2879   10.9559 O   0  0  0  0  0  0  0  0  0  0  0  0
   28.7302   11.0019   11.8021 C   0  0  1  0  0  0  0  0  0  0  0  0
   31.2124   17.0045   11.1296 O   0  0  0  0  0  0  0  0  0  0  0  0
   29.7956   11.7858   12.5743 C   0  0  2  0  0  0  0  0  0  0  0  0
   30.0334   13.4260   10.8312 C   0  0  1  0  0  0  0  0  0  0  0  0
   28.1505   14.9092   10.5192 C   0  0  2  0  0  0  0  0  0  0  0  0
   26.9197   15.1657    9.6468 C   0  0  0  0  0  0  0  0  0  0  0  0
   29.0651   16.1342   10.4346 C   0  0  2  0  0  0  0  0  0  0  0  0
   30.3301   15.8881   11.2585 C   0  0  1  0  0  0  0  0  0  0  0  0
   31.0051   14.6099   10.7541 C   0  0  1  0  0  0  0  0  0  0  0  0
  5  4  1  1  0  0  0
  5  8  1  0  0  0  0
  5 16  1  0  0  0  0
  8  7  1  1  0  0  0
  8 10  1  0  0  0  0
 10  1  1  1  0  0  0
 10 12  1  0  0  0  0
 11 18  1  0  0  0  0
 12 14  1  0  0  0  0
 14  2  1  6  0  0  0
 14 16  1  0  0  0  0
 16  9  1  1  0  0  0
 17  9  1  1  0  0  0
 17 11  1  0  0  0  0
 17 22  1  0  0  0  0
 18 19  1  6  0  0  0
 18 20  1  0  0  0  0
 19  3  1  0  0  0  0
 20 13  1  1  0  0  0
 20 21  1  0  0  0  0
 21 15  1  6  0  0  0
 21 22  1  0  0  0  0
 22  6  1  1  0  0  0
M  END
>  <CHROM.1>
172.23424190,108.27361528,168.72332218,29.27727757,13.08087606,12.00261026
1.55740424,0.55373207,2.63453285

>  <Name>
2fcx_lig

>  <RI>
0

>  <Rbt.Current_Directory>
/home/itssahil/PROJECTS/Mol_Feturizer/New_Systems/rnas/2fcx

>  <Rbt.Executable>
rbdock ($Id: //depot/dev/client3/rdock/2013.1/src/exe/rbdock.cxx#4 $)

>  <Rbt.Library>
libRbt.so (2013.1, Build901 2013/11/27)

>  <Rbt.Parameter_File>
/export/apps/rDock/src/rDock_2013.1_src/data/scripts/dock_solv.prm

>  <Rbt.Receptor>
prm/pocket_docking_6.prm

>  <SCORE>
-10.1069

>  <SCORE.INTER>
-14.533

>  <SCORE.INTER.CONST>
1

>  <SCORE.INTER.POLAR>
-2.07224

>  <SCORE.INTER.ROT>
3

>  <SCORE.INTER.SOLV>
16.1401

>  <SCORE.INTER.VDW>
-13.7612

>  <SCORE.INTER.norm>
-0.66059

>  <SCORE.INTRA>
4.42607

>  <SCORE.INTRA.DIHEDRAL>
2.4075

>  <SCORE.INTRA.DIHEDRAL.0>
4.88619

>  <SCORE.INTRA.POLAR>
0

>  <SCORE.INTRA.POLAR.0>
0

>  <SCORE.INTRA.REPUL>
0

>  <SCORE.INTRA.REPUL.0>
0

>  <SCORE.INTRA.SOLV>
2.47163

>  <SCORE.INTRA.SOLV.lig_0>
-73.8187

>  <SCORE.INTRA.VDW>
1.9865

>  <SCORE.INTRA.VDW.0>
-1.32335

>  <SCORE.INTRA.norm>
0.201185

>  <SCORE.RESTR>
0

>  <SCORE.RESTR.CAVITY>
0

>  <SCORE.RESTR.norm>
0

>  <SCORE.SYSTEM>
0

>  <SCORE.SYSTEM.CONST>
0

>  <SCORE.SYSTEM.DIHEDRAL>
0

>  <SCORE.SYSTEM.SOLV>
0

>  <SCORE.SYSTEM.norm>
0

>  <SCORE.heavy>
22

>  <SCORE.norm>
-0.459405

>  <RMSD>
8.003

$$$$
2fcx_lig
 OpenBabel11021811433D
libRbt.so/2013.1/901 2013/11/27
 22 23  0  0  0  0  0  0  0  0999 V2000
   26.3841    8.4728    6.8293 N   0  0  0  0  0  0  0  0  0  0  0  0
   24.1274   12.5367    8.3999 N   0  0  0  0  0  0  0  0  0  0  0  0
   23.8177   14.3522   13.9107 N   0  0  0  0  0  0  0  0  0  0  0  0
   28.7251   11.6364    9.7155 O   0  0  0  0  0  0  0  0  0  0  0  0
   27.4588   11.0286    9.4462 C   0  0  2  0  0  0  0  0  0  0  0  0
   27.7254   14.7118    8.6528 N   0  0  0  0  0  0  0  0  0  0  0  0
   28.4903    8.9817    8.7361 O   0  0  0  0  0  0  0  0  0  0  0  0
   27.5971   10.0160    8.3069 C   0  0  1  0  0  0  0  0  0  0  0  0
   26.1926   12.9268   10.2975 O   0  0  0  0  0  0  0  0  0  0  0  0
   26.2382    9.4057    7.9562 C   0  0  1  0  0  0  0  0  0  0  0  0
   24.9030   14.7151   11.0915 O   0  0  0  0  0  0  0  0  0  0  0  0
   25.2377   10.5020    7.5748 C   0  0  0  0  0  0  0  0  0  0  0  0
   27.5755   15.9121   13.3512 O   0  0  0  0  0  0  0  0  0  0  0  0
   25.0820   11.4745    8.7473 C   0  0  1  0  0  0  0  0  0  0  0  0
   28.7675   16.2930   10.8088 O   0  0  0  0  0  0  0  0  0  0  0  0
   26.4193   12.1123    9.1350 C   0  0  2  0  0  0  0  0  0  0  0  0
   25.7000   14.2423    9.9899 C   0  0  1  0  0  0  0  0  0  0  0  0
   25.6357   14.8669   12.3240 C   0  0  2  0  0  0  0  0  0  0  0  0
   24.7221   15.4060   13.4270 C   0  0  0  0  0  0  0  0  0  0  0  0
   26.8046   15.8400   12.1478 C   0  0  2  0  0  0  0  0  0  0  0  0
   27.7112   15.3534   11.0161 C   0  0  1  0  0  0  0  0  0  0  0  0
   26.8723   15.2001    9.7446 C   0  0  1  0  0  0  0  0  0  0  0  0
  5  4  1  6  0  0  0
  5  8  1  0  0  0  0
  5 16  1  0  0  0  0
  8  7  1  1  0  0  0
  8 10  1  0  0  0  0
 10  1  1  6  0  0  0
 10 12  1  0  0  0  0
 11 18  1  0  0  0  0
 12 14  1  0  0  0  0
 14  2  1  6  0  0  0
 14 16  1  0  0  0  0
 16  9  1  1  0  0  0
 17  9  1  1  0  0  0
 17 11  1  0  0  0  0
 17 22  1  0  0  0  0
 18 19  1  1  0  0  0
 18 20  1  0  0  0  0
 19  3  1  0  0  0  0
 20 13  1  1  0  0  0
 20 21  1  0  0  0  0
 21 15  1  6  0  0  0
 21 22  1  0  0  0  0
 22  6  1  6  0  0  0
M  END
>  <CHROM.1>
155.73080973,151.55368161,74.80172771,26.49777997,13.01667243,10.10218705
1.49992067,-0.23445964,-2.51583709

>  <Name>
2fcx_lig

>  <RI>
1.15031e+07

>  <Rbt.Current_Directory>
/home/itssahil/PROJECTS/Mol_Feturizer/New_Systems/rnas/2fcx

>  <Rbt.Executable>
rbdock ($Id: //depot/dev/client3/rdock/2013.1/src/exe/rbdock.cxx#4 $)

>  <Rbt.Library>
libRbt.so (2013.1, Build901 2013/11/27)

>  <Rbt.Parameter_File>
/export/apps/rDock/src/rDock_2013.1_src/data/scripts/dock_solv.prm

>  <Rbt.Receptor>
prm/pocket_docking_8.prm

>  <SCORE>
-15.6487

>  <SCORE.INTER>
-17.5285

>  <SCORE.INTER.CONST>
1

>  <SCORE.INTER.POLAR>
-3.23016

>  <SCORE.INTER.ROT>
3

>  <SCORE.INTER.SOLV>
15.8736

>  <SCORE.INTER.VDW>
-11.8096

>  <SCORE.INTER.norm>
-0.796748

>  <SCORE.INTRA>
1.87976

>  <SCORE.INTRA.DIHEDRAL>
1.70897

>  <SCORE.INTRA.DIHEDRAL.0>
4.88619

>  <SCORE.INTRA.POLAR>
0

>  <SCORE.INTRA.POLAR.0>
0

>  <SCORE.INTRA.REPUL>
0

>  <SCORE.INTRA.REPUL.0>
0

>  <SCORE.INTRA.SOLV>
2.00887

>  <SCORE.INTRA.SOLV.lig_0>
-73.8187

>  <SCORE.INTRA.VDW>
0.0208363

>  <SCORE.INTRA.VDW.0>
-1.32335

>  <SCORE.INTRA.norm>
0.0854435

>  <SCORE.RESTR>
0

>  <SCORE.RESTR.CAVITY>
0

>  <SCORE.RESTR.norm>
0

>  <SCORE.SYSTEM>
0

>  <SCORE.SYSTEM.CONST>
0

>  <SCORE.SYSTEM.DIHEDRAL>
0

>  <SCORE.SYSTEM.SOLV>
0

>  <SCORE.SYSTEM.norm>
0

>  <SCORE.heavy>
22

>  <SCORE.norm>
-0.711305

>  <RMSD>
8.325

$$$$
2fcx_lig
 OpenBabel11021811433D
libRbt.so/2013.1/901 2013/11/27
 22 23  0  0  0  0  0  0  0  0999 V2000
   28.2342    7.2290    6.3753 N   0  0  0  0  0  0  0  0  0  0  0  0
   28.7653    4.2809   10.2613 N   0  0  0  0  0  0  0  0  0  0  0  0
   31.9010    1.1417    9.8636 N   0  0  0  0  0  0  0  0  0  0  0  0
   27.7450    2.3972    5.8920 O   0  0  0  0  0  0  0  0  0  0  0  0
   27.4991    3.5077    6.7590 C   0  0  2  0  0  0  0  0  0  0  0  0
   25.6527    0.1051    8.3818 N   0  0  0  0  0  0  0  0  0  0  0  0
   27.1505    4.9929    4.9067 O   0  0  0  0  0  0  0  0  0  0  0  0
   27.9455    4.8066    6.0837 C   0  0  1  0  0  0  0  0  0  0  0  0
   27.6221    2.1552    8.7806 O   0  0  0  0  0  0  0  0  0  0  0  0
   27.7555    5.9993    7.0237 C   0  0  1  0  0  0  0  0  0  0  0  0
   29.3469    0.5813    8.5815 O   0  0  0  0  0  0  0  0  0  0  0  0
   28.5297    5.7852    8.3287 C   0  0  0  0  0  0  0  0  0  0  0  0
   28.7884   -0.7707   11.9788 O   0  0  0  0  0  0  0  0  0  0  0  0
   28.0322    4.5060    9.0076 C   0  0  1  0  0  0  0  0  0  0  0  0
   26.3563   -1.4463   10.6909 O   0  0  0  0  0  0  0  0  0  0  0  0
   28.2027    3.2820    8.1029 C   0  0  2  0  0  0  0  0  0  0  0  0
   27.9908    0.8885    8.2086 C   0  0  1  0  0  0  0  0  0  0  0  0
   29.5443    0.4241   10.0011 C   0  0  2  0  0  0  0  0  0  0  0  0
   31.0010    0.0648   10.3024 C   0  0  0  0  0  0  0  0  0  0  0  0
   28.6489   -0.6864   10.5572 C   0  0  2  0  0  0  0  0  0  0  0  0
   27.1870   -0.3800   10.2278 C   0  0  1  0  0  0  0  0  0  0  0  0
   27.0487   -0.2116    8.7124 C   0  0  1  0  0  0  0  0  0  0  0  0
  5  4  1  6  0  0  0
  5  8  1  0  0  0  0
  5 16  1  0  0  0  0
  8  7  1  6  0  0  0
  8 10  1  0  0  0  0
 10  1  1  6  0  0  0
 10 12  1  0  0  0  0
 11 18  1  0  0  0  0
 12 14  1  0  0  0  0
 14  2  1  1  0  0  0
 14 16  1  0  0  0  0
 16  9  1  1  0  0  0
 17  9  1  1  0  0  0
 17 11  1  0  0  0  0
 17 22  1  0  0  0  0
 18 19  1  6  0  0  0
 18 20  1  0  0  0  0
 19  3  1  0  0  0  0
 20 13  1  1  0  0  0
 20 21  1  0  0  0  0
 21 15  1  6  0  0  0
 21 22  1  0  0  0  0
 22  6  1  1  0  0  0
M  END
>  <CHROM.1>
73.92591261,75.19606223,61.91214112,28.21769396,2.17706954,8.59156062,-1.67386532
0.59391167,2.62826918

>  <Name>
2fcx_lig

>  <RI>
2.63278e+07

>  <Rbt.Current_Directory>
/home/itssahil/PROJECTS/Mol_Feturizer/New_Systems/rnas/2fcx

>  <Rbt.Executable>
rbdock ($Id: //depot/dev/client3/rdock/2013.1/src/exe/rbdock.cxx#4 $)

>  <Rbt.Library>
libRbt.so (2013.1, Build901 2013/11/27)

>  <Rbt.Parameter_File>
/export/apps/rDock/src/rDock_2013.1_src/data/scripts/dock_solv.prm

>  <Rbt.Receptor>
prm/blind_docking_40.prm

>  <SCORE>
-12.4697

>  <SCORE.INTER>
-11.0922

>  <SCORE.INTER.CONST>
1

>  <SCORE.INTER.POLAR>
-2.26263

>  <SCORE.INTER.ROT>
3

>  <SCORE.INTER.SOLV>
20.677

>  <SCORE.INTER.VDW>
-12.345

>  <SCORE.INTER.norm>
-0.50419

>  <SCORE.INTRA>
-1.56705

>  <SCORE.INTRA.DIHEDRAL>
-2.86981

>  <SCORE.INTRA.DIHEDRAL.0>
4.88619

>  <SCORE.INTRA.POLAR>
0

>  <SCORE.INTRA.POLAR.0>
0

>  <SCORE.INTRA.REPUL>
0

>  <SCORE.INTRA.REPUL.0>
0

>  <SCORE.INTRA.SOLV>
-0.472917

>  <SCORE.INTRA.SOLV.lig_0>
-73.8187

>  <SCORE.INTRA.VDW>
0.104315

>  <SCORE.INTRA.VDW.0>
-1.32335

>  <SCORE.INTRA.norm>
-0.0712295

>  <SCORE.RESTR>
0.189557

>  <SCORE.RESTR.CAVITY>
0.189557

>  <SCORE.RESTR.norm>
0.00861623

>  <SCORE.SYSTEM>
0

>  <SCORE.SYSTEM.CONST>
0

>  <SCORE.SYSTEM.DIHEDRAL>
0

>  <SCORE.SYSTEM.SOLV>
0

>  <SCORE.SYSTEM.norm>
0

>  <SCORE.heavy>
22

>  <SCORE.norm>
-0.566803

>  <RMSD>
10.051

$$$$
2fcx_lig
 OpenBabel11021811433D
libRbt.so/2013.1/901 2013/11/27
 22 23  0  0  0  0  0  0  0  0999 V2000
   28.2924    7.0982    6.0462 N   0  0  0  0  0  0  0  0  0  0  0  0
   28.7029    3.9624    9.7976 N   0  0  0  0  0  0  0  0  0  0  0  0
   31.1543   -1.0195    9.4318 N   0  0  0  0  0  0  0  0  0  0  0  0
   27.2229    2.3748    5.4422 O   0  0  0  0  0  0  0  0  0  0  0  0
   27.1568    3.4721    6.3572 C   0  0  2  0  0  0  0  0  0  0  0  0
   25.3596   -0.1262    8.1691 N   0  0  0  0  0  0  0  0  0  0  0  0
   26.8757    5.0569    4.5774 O   0  0  0  0  0  0  0  0  0  0  0  0
   27.7104    4.7370    5.6968 C   0  0  1  0  0  0  0  0  0  0  0  0
   27.2392    2.0380    8.3238 O   0  0  0  0  0  0  0  0  0  0  0  0
   27.7133    5.9067    6.6838 C   0  0  1  0  0  0  0  0  0  0  0  0
   29.0306    0.5284    8.2623 O   0  0  0  0  0  0  0  0  0  0  0  0
   28.5314    5.5566    7.9313 C   0  0  0  0  0  0  0  0  0  0  0  0
   28.5695   -0.4862   11.7892 O   0  0  0  0  0  0  0  0  0  0  0  0
   27.9297    4.3169    8.5990 C   0  0  1  0  0  0  0  0  0  0  0  0
   26.1566   -1.3972   10.6153 O   0  0  0  0  0  0  0  0  0  0  0  0
   27.9058    3.1170    7.6475 C   0  0  2  0  0  0  0  0  0  0  0  0
   27.6582    0.7359    7.8803 C   0  0  1  0  0  0  0  0  0  0  0  0
   29.2500    0.5284    9.6873 C   0  0  2  0  0  0  0  0  0  0  0  0
   30.7244    0.2660   10.0019 C   0  0  0  0  0  0  0  0  0  0  0  0
   28.4112   -0.5562   10.3688 C   0  0  2  0  0  0  0  0  0  0  0  0
   26.9336   -0.3496   10.0318 C   0  0  1  0  0  0  0  0  0  0  0  0
   26.7718   -0.3459    8.5094 C   0  0  1  0  0  0  0  0  0  0  0  0
  5  4  1  6  0  0  0
  5  8  1  0  0  0  0
  5 16  1  0  0  0  0
  8  7  1  6  0  0  0
  8 10  1  0  0  0  0
 10  1  1  6  0  0  0
 10 12  1  0  0  0  0
 11 18  1  0  0  0  0
 12 14  1  0  0  0  0
 14  2  1  1  0  0  0
 14 16  1  0  0  0  0
 16  9  1  1  0  0  0
 17  9  1  1  0  0  0
 17 11  1  0  0  0  0
 17 22  1  0  0  0  0
 18 19  1  6  0  0  0
 18 20  1  0  0  0  0
 19  3  1  0  0  0  0
 20 13  1  1  0  0  0
 20 21  1  0  0  0  0
 21 15  1  1  0  0  0
 21 22  1  0  0  0  0
 22  6  1  1  0  0  0
M  END
>  <CHROM.1>
87.02716781,66.94003889,-58.22458488,27.95811171,2.03403471,8.26605902,-1.67505979
0.60272522,2.61047539

>  <Name>
2fcx_lig

>  <RI>
2.63278e+07

>  <Rbt.Current_Directory>
/home/itssahil/PROJECTS/Mol_Feturizer/New_Systems/rnas/2fcx

>  <Rbt.Executable>
rbdock ($Id: //depot/dev/client3/rdock/2013.1/src/exe/rbdock.cxx#4 $)

>  <Rbt.Library>
libRbt.so (2013.1, Build901 2013/11/27)

>  <Rbt.Parameter_File>
/export/apps/rDock/src/rDock_2013.1_src/data/scripts/dock_solv.prm

>  <Rbt.Receptor>
prm/blind_docking_40.prm

>  <SCORE>
-8.75673

>  <SCORE.INTER>
-8.36983

>  <SCORE.INTER.CONST>
1

>  <SCORE.INTER.POLAR>
-1.48236

>  <SCORE.INTER.ROT>
3

>  <SCORE.INTER.SOLV>
14.7658

>  <SCORE.INTER.VDW>
-11.1606

>  <SCORE.INTER.norm>
-0.380447

>  <SCORE.INTRA>
-0.386901

>  <SCORE.INTRA.DIHEDRAL>
-1.59058

>  <SCORE.INTRA.DIHEDRAL.0>
4.88619

>  <SCORE.INTRA.POLAR>
0

>  <SCORE.INTRA.POLAR.0>
0

>  <SCORE.INTRA.REPUL>
0

>  <SCORE.INTRA.REPUL.0>
0

>  <SCORE.INTRA.SOLV>
1.5736

>  <SCORE.INTRA.SOLV.lig_0>
-73.8187

>  <SCORE.INTRA.VDW>
-0.378411

>  <SCORE.INTRA.VDW.0>
-1.32335

>  <SCORE.INTRA.norm>
-0.0175864

>  <SCORE.RESTR>
0

>  <SCORE.RESTR.CAVITY>
0

>  <SCORE.RESTR.norm>
0

>  <SCORE.SYSTEM>
0

>  <SCORE.SYSTEM.CONST>
0

>  <SCORE.SYSTEM.DIHEDRAL>
0

>  <SCORE.SYSTEM.SOLV>
0

>  <SCORE.SYSTEM.norm>
0

>  <SCORE.heavy>
22

>  <SCORE.norm>
-0.398033

>  <RMSD>
10.358

$$$$
2fcx_lig
 OpenBabel11021811433D
libRbt.so/2013.1/901 2013/11/27
 22 23  0  0  0  0  0  0  0  0999 V2000
   28.5719    6.7534    6.1717 N   0  0  0  0  0  0  0  0  0  0  0  0
   29.0769    3.4866    9.7977 N   0  0  0  0  0  0  0  0  0  0  0  0
   31.1534   -1.5545    9.5451 N   0  0  0  0  0  0  0  0  0  0  0  0
   27.1969    2.1157    5.5238 O   0  0  0  0  0  0  0  0  0  0  0  0
   27.2594    3.1864    6.4699 C   0  0  2  0  0  0  0  0  0  0  0  0
   25.4371   -0.3878    8.1548 N   0  0  0  0  0  0  0  0  0  0  0  0
   26.9394    4.8379    4.7587 O   0  0  0  0  0  0  0  0  0  0  0  0
   27.8339    4.4391    5.8041 C   0  0  1  0  0  0  0  0  0  0  0  0
   27.4038    1.6904    8.3863 O   0  0  0  0  0  0  0  0  0  0  0  0
   27.9745    5.5761    6.8188 C   0  0  1  0  0  0  0  0  0  0  0  0
   29.1296    0.1056    8.3424 O   0  0  0  0  0  0  0  0  0  0  0  0
   28.8602    5.1441    7.9923 C   0  0  0  0  0  0  0  0  0  0  0  0
   28.5421   -0.9390   11.8417 O   0  0  0  0  0  0  0  0  0  0  0  0
   28.2397    3.9190    8.6697 C   0  0  1  0  0  0  0  0  0  0  0  0
   26.1206   -1.7275   10.5986 O   0  0  0  0  0  0  0  0  0  0  0  0
   28.0791    2.7519    7.6911 C   0  0  2  0  0  0  0  0  0  0  0  0
   27.7768    0.3780    7.9323 C   0  0  1  0  0  0  0  0  0  0  0  0
   29.3150    0.0755    9.7720 C   0  0  2  0  0  0  0  0  0  0  0  0
   30.7690   -0.2551   10.1163 C   0  0  0  0  0  0  0  0  0  0  0  0
   28.4145   -0.9815   10.4171 C   0  0  2  0  0  0  0  0  0  0  0  0
   26.9555   -0.7062   10.0495 C   0  0  1  0  0  0  0  0  0  0  0  0
   26.8300   -0.6734    8.5240 C   0  0  1  0  0  0  0  0  0  0  0  0
  5  4  1  6  0  0  0
  5  8  1  0  0  0  0
  5 16  1  0  0  0  0
  8  7  1  6  0  0  0
  8 10  1  0  0  0  0
 10  1  1  6  0  0  0
 10 12  1  0  0  0  0
 11 18  1  0  0  0  0
 12 14  1  0  0  0  0
 14  2  1  1  0  0  0
 14 16  1  0  0  0  0
 16  9  1  1  0  0  0
 17  9  1  1  0  0  0
 17 11  1  0  0  0  0
 17 22  1  0  0  0  0
 18 19  1  6  0  0  0
 18 20  1  0  0  0  0
 19  3  1  0  0  0  0
 20 13  1  1  0  0  0
 20 21  1  0  0  0  0
 21 15  1  6  0  0  0
 21 22  1  0  0  0  0
 22  6  1  1  0  0  0
M  END
>  <CHROM.1>
90.58368395,70.13850363,-58.65912171,28.07214702,1.66312176,8.33568559,-1.64882888
0.56979512,2.60789871

>  <Name>
2fcx_lig

>  <RI>
2.51704e+07

>  <Rbt.Current_Directory>
/home/itssahil/PROJECTS/Mol_Feturizer/New_Systems/rnas/2fcx

>  <Rbt.Executable>
rbdock ($Id: //depot/dev/client3/rdock/2013.1/src/exe/rbdock.cxx#4 $)

>  <Rbt.Library>
libRbt.so (2013.1, Build901 2013/11/27)

>  <Rbt.Parameter_File>
/export/apps/rDock/src/rDock_2013.1_src/data/scripts/dock_solv.prm

>  <Rbt.Receptor>
prm/blind_docking_80.prm

>  <SCORE>
-8.33923

>  <SCORE.INTER>
-8.43365

>  <SCORE.INTER.CONST>
1

>  <SCORE.INTER.POLAR>
-1.58888

>  <SCORE.INTER.ROT>
3

>  <SCORE.INTER.SOLV>
13.9749

>  <SCORE.INTER.VDW>
-10.5844

>  <SCORE.INTER.norm>
-0.383348

>  <SCORE.INTRA>
0.0944167

>  <SCORE.INTRA.DIHEDRAL>
-0.666955

>  <SCORE.INTRA.DIHEDRAL.0>
4.88619

>  <SCORE.INTRA.POLAR>
0

>  <SCORE.INTRA.POLAR.0>
0

>  <SCORE.INTRA.REPUL>
0

>  <SCORE.INTRA.REPUL.0>
0

>  <SCORE.INTRA.SOLV>
1.85055

>  <SCORE.INTRA.SOLV.lig_0>
-73.8187

>  <SCORE.INTRA.VDW>
-0.49738

>  <SCORE.INTRA.VDW.0>
-1.32335

>  <SCORE.INTRA.norm>
0.00429167

>  <SCORE.RESTR>
0

>  <SCORE.RESTR.CAVITY>
0

>  <SCORE.RESTR.norm>
0

>  <SCORE.SYSTEM>
0

>  <SCORE.SYSTEM.CONST>
0

>  <SCORE.SYSTEM.DIHEDRAL>
0

>  <SCORE.SYSTEM.SOLV>
0

>  <SCORE.SYSTEM.norm>
0

>  <SCORE.heavy>
22

>  <SCORE.norm>
-0.379056

>  <RMSD>
10.569

$$$$
2fcx_lig
 OpenBabel11021811433D
libRbt.so/2013.1/901 2013/11/27
 22 23  0  0  0  0  0  0  0  0999 V2000
   27.9014    6.5823    6.4988 N   0  0  0  0  0  0  0  0  0  0  0  0
   28.6767    1.8293    5.5595 N   0  0  0  0  0  0  0  0  0  0  0  0
   32.7989   -1.8123    7.7636 N   0  0  0  0  0  0  0  0  0  0  0  0
   28.9483    3.4891   10.1258 O   0  0  0  0  0  0  0  0  0  0  0  0
   29.2225    3.8113    8.7596 C   0  0  2  0  0  0  0  0  0  0  0  0
   27.2587    1.0951    9.5293 N   0  0  0  0  0  0  0  0  0  0  0  0
   28.9337    6.1594    9.1609 O   0  0  0  0  0  0  0  0  0  0  0  0
   28.4570    5.0739    8.3569 C   0  0  1  0  0  0  0  0  0  0  0  0
   29.7480    1.5098    8.1610 O   0  0  0  0  0  0  0  0  0  0  0  0
   28.6821    5.3954    6.8776 C   0  0  1  0  0  0  0  0  0  0  0  0
   30.0857   -0.8041    8.0078 O   0  0  0  0  0  0  0  0  0  0  0  0
   28.2582    4.2136    5.9990 C   0  0  0  0  0  0  0  0  0  0  0  0
   31.0766   -1.1057   11.5586 O   0  0  0  0  0  0  0  0  0  0  0  0
   29.0710    2.9761    6.3898 C   0  0  1  0  0  0  0  0  0  0  0  0
   28.3781   -0.2723   11.7901 O   0  0  0  0  0  0  0  0  0  0  0  0
   28.8770    2.6143    7.8653 C   0  0  2  0  0  0  0  0  0  0  0  0
   29.0913    0.2315    8.1128 C   0  0  1  0  0  0  0  0  0  0  0  0
   30.9751   -0.8812    9.1400 C   0  0  2  0  0  0  0  0  0  0  0  0
   31.9721   -2.0281    8.9604 C   0  0  0  0  0  0  0  0  0  0  0  0
   30.1923   -1.1212   10.4338 C   0  0  2  0  0  0  0  0  0  0  0  0
   29.1513   -0.0154   10.6164 C   0  0  1  0  0  0  0  0  0  0  0  0
   28.2511    0.0224    9.3786 C   0  0  1  0  0  0  0  0  0  0  0  0
  5  4  1  1  0  0  0
  5  8  1  0  0  0  0
  5 16  1  0  0  0  0
  8  7  1  1  0  0  0
  8 10  1  0  0  0  0
 10  1  1  6  0  0  0
 10 12  1  0  0  0  0
 11 18  1  0  0  0  0
 12 14  1  0  0  0  0
 14  2  1  6  0  0  0
 14 16  1  0  0  0  0
 16  9  1  1  0  0  0
 17  9  1  1  0  0  0
 17 11  1  0  0  0  0
 17 22  1  0  0  0  0
 18 19  1  6  0  0  0
 18 20  1  0  0  0  0
 19  3  1  0  0  0  0
 20 13  1  1  0  0  0
 20 21  1  0  0  0  0
 21 15  1  1  0  0  0
 21 22  1  0  0  0  0
 22  6  1  1  0  0  0
M  END
>  <CHROM.1>
142.07204407,162.40259386,61.14210983,29.37571412,1.66879761,8.63938527,-2.30035330
-1.09071525,2.10934425

>  <Name>
2fcx_lig

>  <RI>
2.51704e+07

>  <Rbt.Current_Directory>
/home/itssahil/PROJECTS/Mol_Feturizer/New_Systems/rnas/2fcx

>  <Rbt.Executable>
rbdock ($Id: //depot/dev/client3/rdock/2013.1/src/exe/rbdock.cxx#4 $)

>  <Rbt.Library>
libRbt.so (2013.1, Build901 2013/11/27)

>  <Rbt.Parameter_File>
/export/apps/rDock/src/rDock_2013.1_src/data/scripts/dock_solv.prm

>  <Rbt.Receptor>
prm/blind_docking_80.prm

>  <SCORE>
-10.6649

>  <SCORE.INTER>
-12.4884

>  <SCORE.INTER.CONST>
1

>  <SCORE.INTER.POLAR>
-2.12789

>  <SCORE.INTER.ROT>
3

>  <SCORE.INTER.SOLV>
11.5448

>  <SCORE.INTER.VDW>
-10.6809

>  <SCORE.INTER.norm>
-0.567653

>  <SCORE.INTRA>
1.82351

>  <SCORE.INTRA.DIHEDRAL>
1.60024

>  <SCORE.INTRA.DIHEDRAL.0>
4.88619

>  <SCORE.INTRA.POLAR>
0

>  <SCORE.INTRA.POLAR.0>
0

>  <SCORE.INTRA.REPUL>
0

>  <SCORE.INTRA.REPUL.0>
0

>  <SCORE.INTRA.SOLV>
2.46478

>  <SCORE.INTRA.SOLV.lig_0>
-73.8187

>  <SCORE.INTRA.VDW>
-0.209002

>  <SCORE.INTRA.VDW.0>
-1.32335

>  <SCORE.INTRA.norm>
0.0828868

>  <SCORE.RESTR>
0

>  <SCORE.RESTR.CAVITY>
0

>  <SCORE.RESTR.norm>
0

>  <SCORE.SYSTEM>
0

>  <SCORE.SYSTEM.CONST>
0

>  <SCORE.SYSTEM.DIHEDRAL>
0

>  <SCORE.SYSTEM.SOLV>
0

>  <SCORE.SYSTEM.norm>
0

>  <SCORE.heavy>
22

>  <SCORE.norm>
-0.484766

>  <RMSD>
10.756

$$$$
2fcx_lig
 OpenBabel11021811433D
libRbt.so/2013.1/901 2013/11/27
 22 23  0  0  0  0  0  0  0  0999 V2000
   28.4363    6.7988    7.6005 N   0  0  0  0  0  0  0  0  0  0  0  0
   30.0197    2.1660    7.9247 N   0  0  0  0  0  0  0  0  0  0  0  0
   25.6381    1.6910    6.0374 N   0  0  0  0  0  0  0  0  0  0  0  0
   25.7456    3.4254    9.8806 O   0  0  0  0  0  0  0  0  0  0  0  0
   27.0816    3.8724    9.6343 C   0  0  2  0  0  0  0  0  0  0  0  0
   27.9842   -0.6162   11.6449 N   0  0  0  0  0  0  0  0  0  0  0  0
   26.3922    6.1689    9.5385 O   0  0  0  0  0  0  0  0  0  0  0  0
   27.0582    5.1470    8.7873 C   0  0  1  0  0  0  0  0  0  0  0  0
   28.0367    1.6454    9.8776 O   0  0  0  0  0  0  0  0  0  0  0  0
   28.4807    5.6021    8.4536 C   0  0  1  0  0  0  0  0  0  0  0  0
   26.1095    0.8780    8.7873 O   0  0  0  0  0  0  0  0  0  0  0  0
   29.2438    4.4921    7.7229 C   0  0  0  0  0  0  0  0  0  0  0  0
   27.9502   -1.7336    6.9238 O   0  0  0  0  0  0  0  0  0  0  0  0
   29.2936    3.2447    8.6096 C   0  0  1  0  0  0  0  0  0  0  0  0
   28.2761   -2.6077    9.5996 O   0  0  0  0  0  0  0  0  0  0  0  0
   27.8895    2.7506    8.9705 C   0  0  2  0  0  0  0  0  0  0  0  0
   26.8400    0.8622   10.0276 C   0  0  1  0  0  0  0  0  0  0  0  0
   26.8151    0.2781    7.6823 C   0  0  2  0  0  0  0  0  0  0  0  0
   25.9532    0.3060    6.4182 C   0  0  0  0  0  0  0  0  0  0  0  0
   27.1731   -1.1786    7.9895 C   0  0  2  0  0  0  0  0  0  0  0  0
   27.9949   -1.2442    9.2779 C   0  0  1  0  0  0  0  0  0  0  0  0
   27.1981   -0.5806   10.4043 C   0  0  1  0  0  0  0  0  0  0  0  0
  5  4  1  6  0  0  0
  5  8  1  0  0  0  0
  5 16  1  0  0  0  0
  8  7  1  1  0  0  0
  8 10  1  0  0  0  0
 10  1  1  6  0  0  0
 10 12  1  0  0  0  0
 11 18  1  0  0  0  0
 12 14  1  0  0  0  0
 14  2  1  6  0  0  0
 14 16  1  0  0  0  0
 16  9  1  1  0  0  0
 17  9  1  6  0  0  0
 17 11  1  0  0  0  0
 17 22  1  0  0  0  0
 18 19  1  6  0  0  0
 18 20  1  0  0  0  0
 19  3  1  0  0  0  0
 20 13  1  6  0  0  0
 20 21  1  0  0  0  0
 21 15  1  1  0  0  0
 21 22  1  0  0  0  0
 22  6  1  1  0  0  0
M  END
>  <CHROM.1>
75.04368329,32.03855129,61.27761470,27.50895113,1.85806495,8.72395944,1.38391487
-1.39420381,-0.22531007

>  <Name>
2fcx_lig

>  <RI>
2.63278e+07

>  <Rbt.Current_Directory>
/home/itssahil/PROJECTS/Mol_Feturizer/New_Systems/rnas/2fcx

>  <Rbt.Executable>
rbdock ($Id: //depot/dev/client3/rdock/2013.1/src/exe/rbdock.cxx#4 $)

>  <Rbt.Library>
libRbt.so (2013.1, Build901 2013/11/27)

>  <Rbt.Parameter_File>
/export/apps/rDock/src/rDock_2013.1_src/data/scripts/dock_solv.prm

>  <Rbt.Receptor>
prm/blind_docking_40.prm

>  <SCORE>
-11.4515

>  <SCORE.INTER>
-12.9256

>  <SCORE.INTER.CONST>
1

>  <SCORE.INTER.POLAR>
-2.1626

>  <SCORE.INTER.ROT>
3

>  <SCORE.INTER.SOLV>
12.5614

>  <SCORE.INTER.VDW>
-11.1955

>  <SCORE.INTER.norm>
-0.587527

>  <SCORE.INTRA>
0.870039

>  <SCORE.INTRA.DIHEDRAL>
-0.596971

>  <SCORE.INTRA.DIHEDRAL.0>
4.88619

>  <SCORE.INTRA.POLAR>
0

>  <SCORE.INTRA.POLAR.0>
0

>  <SCORE.INTRA.REPUL>
0

>  <SCORE.INTRA.REPUL.0>
0

>  <SCORE.INTRA.SOLV>
0.449118

>  <SCORE.INTRA.SOLV.lig_0>
-73.8187

>  <SCORE.INTRA.VDW>
0.943965

>  <SCORE.INTRA.VDW.0>
-1.32335

>  <SCORE.INTRA.norm>
0.0395472

>  <SCORE.RESTR>
0.604012

>  <SCORE.RESTR.CAVITY>
0.604012

>  <SCORE.RESTR.norm>
0.0274551

>  <SCORE.SYSTEM>
0

>  <SCORE.SYSTEM.CONST>
0

>  <SCORE.SYSTEM.DIHEDRAL>
0

>  <SCORE.SYSTEM.SOLV>
0

>  <SCORE.SYSTEM.norm>
0

>  <SCORE.heavy>
22

>  <SCORE.norm>
-0.520525

>  <RMSD>
10.758

$$$$
2fcx_lig
 OpenBabel11021811433D
libRbt.so/2013.1/901 2013/11/27
 22 23  0  0  0  0  0  0  0  0999 V2000
   28.3931    6.7979    7.5996 N   0  0  0  0  0  0  0  0  0  0  0  0
   29.9843    2.1699    7.9524 N   0  0  0  0  0  0  0  0  0  0  0  0
   25.6356    1.6938    6.0214 N   0  0  0  0  0  0  0  0  0  0  0  0
   25.6914    3.4261    9.8689 O   0  0  0  0  0  0  0  0  0  0  0  0
   27.0284    3.8753    9.6321 C   0  0  2  0  0  0  0  0  0  0  0  0
   27.9327   -0.6208   11.6445 N   0  0  0  0  0  0  0  0  0  0  0  0
   26.3345    6.1699    9.5228 O   0  0  0  0  0  0  0  0  0  0  0  0
   27.0090    5.1470    8.7806 C   0  0  1  0  0  0  0  0  0  0  0  0
   27.9864    1.6513    9.8908 O   0  0  0  0  0  0  0  0  0  0  0  0
   28.4332    5.6043    8.4570 C   0  0  1  0  0  0  0  0  0  0  0  0
   26.0828    0.8704    8.7691 O   0  0  0  0  0  0  0  0  0  0  0  0
   29.2048    4.4936    7.7364 C   0  0  0  0  0  0  0  0  0  0  0  0
   27.9766   -1.7114    6.9172 O   0  0  0  0  0  0  0  0  0  0  0  0
   29.2501    3.2493    8.6277 C   0  0  1  0  0  0  0  0  0  0  0  0
   28.2740   -2.5974    9.5924 O   0  0  0  0  0  0  0  0  0  0  0  0
   27.8443    2.7531    8.9788 C   0  0  2  0  0  0  0  0  0  0  0  0
   26.7960    0.8549   10.0195 C   0  0  1  0  0  0  0  0  0  0  0  0
   26.8101    0.2840    7.6708 C   0  0  2  0  0  0  0  0  0  0  0  0
   25.9658    0.3104    6.3948 C   0  0  0  0  0  0  0  0  0  0  0  0
   27.1790   -1.1705    7.9749 C   0  0  2  0  0  0  0  0  0  0  0  0
   27.9832   -1.2351    9.2744 C   0  0  1  0  0  0  0  0  0  0  0  0
   27.1638   -0.5862   10.3931 C   0  0  1  0  0  0  0  0  0  0  0  0
  5  4  1  6  0  0  0
  5  8  1  0  0  0  0
  5 16  1  0  0  0  0
  8  7  1  1  0  0  0
  8 10  1  0  0  0  0
 10  1  1  6  0  0  0
 10 12  1  0  0  0  0
 11 18  1  0  0  0  0
 12 14  1  0  0  0  0
 14  2  1  6  0  0  0
 14 16  1  0  0  0  0
 16  9  1  1  0  0  0
 17  9  1  6  0  0  0
 17 11  1  0  0  0  0
 17 22  1  0  0  0  0
 18 19  1  6  0  0  0
 18 20  1  0  0  0  0
 19  3  1  0  0  0  0
 20 13  1  6  0  0  0
 20 21  1  0  0  0  0
 21 15  1  1  0  0  0
 21 22  1  0  0  0  0
 22  6  1  1  0  0  0
M  END
>  <CHROM.1>
75.85707371,31.51315036,60.97541587,27.47953442,1.86099838,8.72043326,1.40214702
-1.42038510,-0.20750502

>  <Name>
2fcx_lig

>  <RI>
2.63278e+07

>  <Rbt.Current_Directory>
/home/itssahil/PROJECTS/Mol_Feturizer/New_Systems/rnas/2fcx

>  <Rbt.Executable>
rbdock ($Id: //depot/dev/client3/rdock/2013.1/src/exe/rbdock.cxx#4 $)

>  <Rbt.Library>
libRbt.so (2013.1, Build901 2013/11/27)

>  <Rbt.Parameter_File>
/export/apps/rDock/src/rDock_2013.1_src/data/scripts/dock_solv.prm

>  <Rbt.Receptor>
prm/blind_docking_40.prm

>  <SCORE>
-11.5009

>  <SCORE.INTER>
-13.1222

>  <SCORE.INTER.CONST>
1

>  <SCORE.INTER.POLAR>
-2.17393

>  <SCORE.INTER.ROT>
3

>  <SCORE.INTER.SOLV>
12.4681

>  <SCORE.INTER.VDW>
-11.2577

>  <SCORE.INTER.norm>
-0.596463

>  <SCORE.INTRA>
0.992648

>  <SCORE.INTRA.DIHEDRAL>
-0.389783

>  <SCORE.INTRA.DIHEDRAL.0>
4.88619

>  <SCORE.INTRA.POLAR>
0

>  <SCORE.INTRA.POLAR.0>
0

>  <SCORE.INTRA.REPUL>
0

>  <SCORE.INTRA.REPUL.0>
0

>  <SCORE.INTRA.SOLV>
0.520216

>  <SCORE.INTRA.SOLV.lig_0>
-73.8187

>  <SCORE.INTRA.VDW>
0.927431

>  <SCORE.INTRA.VDW.0>
-1.32335

>  <SCORE.INTRA.norm>
0.0451204

>  <SCORE.RESTR>
0.628597

>  <SCORE.RESTR.CAVITY>
0.628597

>  <SCORE.RESTR.norm>
0.0285726

>  <SCORE.SYSTEM>
0

>  <SCORE.SYSTEM.CONST>
0

>  <SCORE.SYSTEM.DIHEDRAL>
0

>  <SCORE.SYSTEM.SOLV>
0

>  <SCORE.SYSTEM.norm>
0

>  <SCORE.heavy>
22

>  <SCORE.norm>
-0.52277

>  <RMSD>
10.762

$$$$
2fcx_lig
 OpenBabel11021811433D
libRbt.so/2013.1/901 2013/11/27
 22 23  0  0  0  0  0  0  0  0999 V2000
   27.5288    5.0137    5.4895 N   0  0  0  0  0  0  0  0  0  0  0  0
   24.8075    1.6828    7.8507 N   0  0  0  0  0  0  0  0  0  0  0  0
   31.7421   -0.3973    9.1286 N   0  0  0  0  0  0  0  0  0  0  0  0
   28.9056    3.3589    9.8696 O   0  0  0  0  0  0  0  0  0  0  0  0
   28.2923    2.9924    8.6307 C   0  0  2  0  0  0  0  0  0  0  0  0
   25.8639   -1.4301    9.7252 N   0  0  0  0  0  0  0  0  0  0  0  0
   29.6430    4.5462    7.3981 O   0  0  0  0  0  0  0  0  0  0  0  0
   28.2840    4.1898    7.6775 C   0  0  1  0  0  0  0  0  0  0  0  0
   26.9552    1.2236    9.6380 O   0  0  0  0  0  0  0  0  0  0  0  0
   27.5684    3.8378    6.3713 C   0  0  1  0  0  0  0  0  0  0  0  0
   29.0040    0.3897    8.8643 O   0  0  0  0  0  0  0  0  0  0  0  0
   26.1359    3.3709    6.6509 C   0  0  0  0  0  0  0  0  0  0  0  0
   29.9958   -0.8567   12.2025 O   0  0  0  0  0  0  0  0  0  0  0  0
   26.1737    2.1450    7.5677 C   0  0  1  0  0  0  0  0  0  0  0  0
   27.7286   -2.4632   11.6461 O   0  0  0  0  0  0  0  0  0  0  0  0
   26.8819    2.4495    8.8911 C   0  0  2  0  0  0  0  0  0  0  0  0
   27.5856    0.1497    8.9189 C   0  0  1  0  0  0  0  0  0  0  0  0
   29.6470    0.4062   10.1547 C   0  0  2  0  0  0  0  0  0  0  0  0
   31.1528    0.6306    9.9996 C   0  0  0  0  0  0  0  0  0  0  0  0
   29.4303   -0.9194   10.8896 C   0  0  2  0  0  0  0  0  0  0  0  0
   27.9314   -1.1966   11.0166 C   0  0  1  0  0  0  0  0  0  0  0  0
   27.3088   -1.1868    9.6180 C   0  0  1  0  0  0  0  0  0  0  0  0
  5  4  1  1  0  0  0
  5  8  1  0  0  0  0
  5 16  1  0  0  0  0
  8  7  1  6  0  0  0
  8 10  1  0  0  0  0
 10  1  1  6  0  0  0
 10 12  1  0  0  0  0
 11 18  1  0  0  0  0
 12 14  1  0  0  0  0
 14  2  1  1  0  0  0
 14 16  1  0  0  0  0
 16  9  1  1  0  0  0
 17  9  1  1  0  0  0
 17 11  1  0  0  0  0
 17 22  1  0  0  0  0
 18 19  1  6  0  0  0
 18 20  1  0  0  0  0
 19  3  1  0  0  0  0
 20 13  1  1  0  0  0
 20 21  1  0  0  0  0
 21 15  1  6  0  0  0
 21 22  1  0  0  0  0
 22  6  1  1  0  0  0
M  END
>  <CHROM.1>
-65.22004367,73.77795869,-56.62134929,28.14599528,1.26028804,9.04583198,-1.79866183
0.23697243,2.54245134

>  <Name>
2fcx_lig

>  <RI>
224

>  <Rbt.Current_Directory>
/home/itssahil/PROJECTS/Mol_Feturizer/New_Systems/rnas/2fcx

>  <Rbt.Executable>
rbdock ($Id: //depot/dev/client3/rdock/2013.1/src/exe/rbdock.cxx#4 $)

>  <Rbt.Library>
libRbt.so (2013.1, Build901 2013/11/27)

>  <Rbt.Parameter_File>
/export/apps/rDock/src/rDock_2013.1_src/data/scripts/dock_solv.prm

>  <Rbt.Receptor>
prm/blind_docking_60.prm

>  <SCORE>
-10.5389

>  <SCORE.INTER>
-10.9845

>  <SCORE.INTER.CONST>
1

>  <SCORE.INTER.POLAR>
-1.83204

>  <SCORE.INTER.ROT>
3

>  <SCORE.INTER.SOLV>
14.505

>  <SCORE.INTER.VDW>
-11.6512

>  <SCORE.INTER.norm>
-0.499295

>  <SCORE.INTRA>
0.445553

>  <SCORE.INTRA.DIHEDRAL>
-3.80805

>  <SCORE.INTRA.DIHEDRAL.0>
4.88619

>  <SCORE.INTRA.POLAR>
0

>  <SCORE.INTRA.POLAR.0>
0

>  <SCORE.INTRA.REPUL>
0

>  <SCORE.INTRA.REPUL.0>
0

>  <SCORE.INTRA.SOLV>
2.15646

>  <SCORE.INTRA.SOLV.lig_0>
-73.8187

>  <SCORE.INTRA.VDW>
1.27135

>  <SCORE.INTRA.VDW.0>
-1.32335

>  <SCORE.INTRA.norm>
0.0202524

>  <SCORE.RESTR>
0

>  <SCORE.RESTR.CAVITY>
0

>  <SCORE.RESTR.norm>
0

>  <SCORE.SYSTEM>
0

>  <SCORE.SYSTEM.CONST>
0

>  <SCORE.SYSTEM.DIHEDRAL>
0

>  <SCORE.SYSTEM.SOLV>
0

>  <SCORE.SYSTEM.norm>
0

>  <SCORE.heavy>
22

>  <SCORE.norm>
-0.479043

>  <RMSD>
10.821

$$$$
2fcx_lig
 OpenBabel11021811433D
libRbt.so/2013.1/901 2013/11/27
 22 23  0  0  0  0  0  0  0  0999 V2000
   28.8601    6.6690    9.0138 N   0  0  0  0  0  0  0  0  0  0  0  0
   27.1586    2.2095   10.1510 N   0  0  0  0  0  0  0  0  0  0  0  0
   28.1356   -0.8663   11.9351 N   0  0  0  0  0  0  0  0  0  0  0  0
   29.3228    2.9732    5.8600 O   0  0  0  0  0  0  0  0  0  0  0  0
   28.4660    3.5590    6.8439 C   0  0  2  0  0  0  0  0  0  0  0  0
   26.5765   -0.5678    5.5745 N   0  0  0  0  0  0  0  0  0  0  0  0
   29.1946    5.7770    6.2891 O   0  0  0  0  0  0  0  0  0  0  0  0
   29.0896    4.8510    7.3770 C   0  0  1  0  0  0  0  0  0  0  0  0
   27.4426    1.4319    7.4432 O   0  0  0  0  0  0  0  0  0  0  0  0
   28.2209    5.4563    8.4821 C   0  0  1  0  0  0  0  0  0  0  0  0
   28.9666   -0.0725    8.3950 O   0  0  0  0  0  0  0  0  0  0  0  0
   28.0225    4.4518    9.6222 C   0  0  0  0  0  0  0  0  0  0  0  0
   26.3307   -1.9056   10.2315 O   0  0  0  0  0  0  0  0  0  0  0  0
   27.3552    3.1881    9.0722 C   0  0  1  0  0  0  0  0  0  0  0  0
   25.6137   -2.4242    7.5395 O   0  0  0  0  0  0  0  0  0  0  0  0
   28.1901    2.5451    7.9609 C   0  0  2  0  0  0  0  0  0  0  0  0
   28.2465    0.2657    7.1952 C   0  0  1  0  0  0  0  0  0  0  0  0
   28.1208   -0.4288    9.5069 C   0  0  2  0  0  0  0  0  0  0  0  0
   28.9677   -0.8068   10.7241 C   0  0  0  0  0  0  0  0  0  0  0  0
   27.2267   -1.6202    9.1529 C   0  0  2  0  0  0  0  0  0  0  0  0
   26.4019   -1.2907    7.9077 C   0  0  1  0  0  0  0  0  0  0  0  0
   27.3555   -0.9087    6.7725 C   0  0  1  0  0  0  0  0  0  0  0  0
  5  4  1  6  0  0  0
  5  8  1  0  0  0  0
  5 16  1  0  0  0  0
  8  7  1  6  0  0  0
  8 10  1  0  0  0  0
 10  1  1  1  0  0  0
 10 12  1  0  0  0  0
 11 18  1  0  0  0  0
 12 14  1  0  0  0  0
 14  2  1  1  0  0  0
 14 16  1  0  0  0  0
 16  9  1  6  0  0  0
 17  9  1  1  0  0  0
 17 11  1  0  0  0  0
 17 22  1  0  0  0  0
 18 19  1  1  0  0  0
 18 20  1  0  0  0  0
 19  3  1  0  0  0  0
 20 13  1  1  0  0  0
 20 21  1  0  0  0  0
 21 15  1  6  0  0  0
 21 22  1  0  0  0  0
 22  6  1  6  0  0  0
M  END
>  <CHROM.1>
101.58774455,54.04134374,166.86522674,27.87357282,1.45419956,8.30329780,-0.38275276
1.30630343,1.79191309

>  <Name>
2fcx_lig

>  <RI>
2.51704e+07

>  <Rbt.Current_Directory>
/home/itssahil/PROJECTS/Mol_Feturizer/New_Systems/rnas/2fcx

>  <Rbt.Executable>
rbdock ($Id: //depot/dev/client3/rdock/2013.1/src/exe/rbdock.cxx#4 $)

>  <Rbt.Library>
libRbt.so (2013.1, Build901 2013/11/27)

>  <Rbt.Parameter_File>
/export/apps/rDock/src/rDock_2013.1_src/data/scripts/dock_solv.prm

>  <Rbt.Receptor>
prm/blind_docking_80.prm

>  <SCORE>
-5.30764

>  <SCORE.INTER>
-7.85387

>  <SCORE.INTER.CONST>
1

>  <SCORE.INTER.POLAR>
-1.83214

>  <SCORE.INTER.ROT>
3

>  <SCORE.INTER.SOLV>
20.0891

>  <SCORE.INTER.VDW>
-11.4251

>  <SCORE.INTER.norm>
-0.356994

>  <SCORE.INTRA>
2.14416

>  <SCORE.INTRA.DIHEDRAL>
1.55333

>  <SCORE.INTRA.DIHEDRAL.0>
4.88619

>  <SCORE.INTRA.POLAR>
0

>  <SCORE.INTRA.POLAR.0>
0

>  <SCORE.INTRA.REPUL>
0

>  <SCORE.INTRA.REPUL.0>
0

>  <SCORE.INTRA.SOLV>
3.3432

>  <SCORE.INTRA.SOLV.lig_0>
-73.8187

>  <SCORE.INTRA.VDW>
-0.304102

>  <SCORE.INTRA.VDW.0>
-1.32335

>  <SCORE.INTRA.norm>
0.097462

>  <SCORE.RESTR>
0.402065

>  <SCORE.RESTR.CAVITY>
0.402065

>  <SCORE.RESTR.norm>
0.0182757

>  <SCORE.SYSTEM>
0

>  <SCORE.SYSTEM.CONST>
0

>  <SCORE.SYSTEM.DIHEDRAL>
0

>  <SCORE.SYSTEM.SOLV>
0

>  <SCORE.SYSTEM.norm>
0

>  <SCORE.heavy>
22

>  <SCORE.norm>
-0.241256

>  <RMSD>
10.875

$$$$
2fcx_lig
 OpenBabel11021811433D
libRbt.so/2013.1/901 2013/11/27
 22 23  0  0  0  0  0  0  0  0999 V2000
   28.3545    6.3894    9.4897 N   0  0  0  0  0  0  0  0  0  0  0  0
   25.6650    2.3000    9.8338 N   0  0  0  0  0  0  0  0  0  0  0  0
   28.0457   -0.8685   11.7710 N   0  0  0  0  0  0  0  0  0  0  0  0
   29.3098    2.5591    6.6200 O   0  0  0  0  0  0  0  0  0  0  0  0
   28.2648    3.3078    7.2467 C   0  0  2  0  0  0  0  0  0  0  0  0
   25.7947   -0.6481    5.6190 N   0  0  0  0  0  0  0  0  0  0  0  0
   29.4903    5.3608    7.0436 O   0  0  0  0  0  0  0  0  0  0  0  0
   28.8566    4.5020    7.9991 C   0  0  1  0  0  0  0  0  0  0  0  0
   26.7668    1.3928    7.3882 O   0  0  0  0  0  0  0  0  0  0  0  0
   27.7606    5.2760    8.7351 C   0  0  1  0  0  0  0  0  0  0  0  0
   28.4518   -0.0387    8.1648 O   0  0  0  0  0  0  0  0  0  0  0  0
   27.0097    4.3564    9.7040 C   0  0  0  0  0  0  0  0  0  0  0  0
   26.1167   -1.9858   10.2714 O   0  0  0  0  0  0  0  0  0  0  0  0
   26.3882    3.1965    8.9209 C   0  0  1  0  0  0  0  0  0  0  0  0
   25.1361   -2.5421    7.6716 O   0  0  0  0  0  0  0  0  0  0  0  0
   27.4493    2.3903    8.1661 C   0  0  2  0  0  0  0  0  0  0  0  0
   27.5911    0.2638    7.0512 C   0  0  1  0  0  0  0  0  0  0  0  0
   27.7487   -0.4307    9.3610 C   0  0  2  0  0  0  0  0  0  0  0  0
   28.7390   -0.7672   10.4781 C   0  0  0  0  0  0  0  0  0  0  0  0
   26.8765   -1.6623    9.1028 C   0  0  2  0  0  0  0  0  0  0  0  0
   25.9073   -1.3732    7.9553 C   0  0  1  0  0  0  0  0  0  0  0  0
   26.7137   -0.9507    6.7244 C   0  0  1  0  0  0  0  0  0  0  0  0
  5  4  1  1  0  0  0
  5  8  1  0  0  0  0
  5 16  1  0  0  0  0
  8  7  1  6  0  0  0
  8 10  1  0  0  0  0
 10  1  1  1  0  0  0
 10 12  1  0  0  0  0
 11 18  1  0  0  0  0
 12 14  1  0  0  0  0
 14  2  1  1  0  0  0
 14 16  1  0  0  0  0
 16  9  1  6  0  0  0
 17  9  1  1  0  0  0
 17 11  1  0  0  0  0
 17 22  1  0  0  0  0
 18 19  1  1  0  0  0
 18 20  1  0  0  0  0
 19  3  1  0  0  0  0
 20 13  1  1  0  0  0
 20 21  1  0  0  0  0
 21 15  1  6  0  0  0
 21 22  1  0  0  0  0
 22  6  1  6  0  0  0
M  END
>  <CHROM.1>
82.47861082,37.53787544,167.15052605,27.39067513,1.34006093,8.41150469,-0.24673283
1.28636698,1.77089313

>  <Name>
2fcx_lig

>  <RI>
224

>  <Rbt.Current_Directory>
/home/itssahil/PROJECTS/Mol_Feturizer/New_Systems/rnas/2fcx

>  <Rbt.Executable>
rbdock ($Id: //depot/dev/client3/rdock/2013.1/src/exe/rbdock.cxx#4 $)

>  <Rbt.Library>
libRbt.so (2013.1, Build901 2013/11/27)

>  <Rbt.Parameter_File>
/export/apps/rDock/src/rDock_2013.1_src/data/scripts/dock_solv.prm

>  <Rbt.Receptor>
prm/blind_docking_60.prm

>  <SCORE>
-7.31896

>  <SCORE.INTER>
-8.89166

>  <SCORE.INTER.CONST>
1

>  <SCORE.INTER.POLAR>
-1.83812

>  <SCORE.INTER.ROT>
3

>  <SCORE.INTER.SOLV>
21.1506

>  <SCORE.INTER.VDW>
-12.4509

>  <SCORE.INTER.norm>
-0.404166

>  <SCORE.INTRA>
1.27931

>  <SCORE.INTRA.DIHEDRAL>
0.136031

>  <SCORE.INTRA.DIHEDRAL.0>
4.88619

>  <SCORE.INTRA.POLAR>
0

>  <SCORE.INTRA.POLAR.0>
0

>  <SCORE.INTRA.REPUL>
0

>  <SCORE.INTRA.REPUL.0>
0

>  <SCORE.INTRA.SOLV>
1.33365

>  <SCORE.INTRA.SOLV.lig_0>
-73.8187

>  <SCORE.INTRA.VDW>
0.544468

>  <SCORE.INTRA.VDW.0>
-1.32335

>  <SCORE.INTRA.norm>
0.0581503

>  <SCORE.RESTR>
0.293388

>  <SCORE.RESTR.CAVITY>
0.293388

>  <SCORE.RESTR.norm>
0.0133358

>  <SCORE.SYSTEM>
0

>  <SCORE.SYSTEM.CONST>
0

>  <SCORE.SYSTEM.DIHEDRAL>
0

>  <SCORE.SYSTEM.SOLV>
0

>  <SCORE.SYSTEM.norm>
0

>  <SCORE.heavy>
22

>  <SCORE.norm>
-0.33268

>  <RMSD>
10.985

$$$$
2fcx_lig
 OpenBabel11021811433D
libRbt.so/2013.1/901 2013/11/27
 22 23  0  0  0  0  0  0  0  0999 V2000
   27.1780    5.9824    7.0010 N   0  0  0  0  0  0  0  0  0  0  0  0
   30.6046    2.8138    8.5153 N   0  0  0  0  0  0  0  0  0  0  0  0
   29.5822   -0.3588    5.8827 N   0  0  0  0  0  0  0  0  0  0  0  0
   25.8874    1.7481    9.0563 O   0  0  0  0  0  0  0  0  0  0  0  0
   26.8446    2.8103    9.0895 C   0  0  2  0  0  0  0  0  0  0  0  0
   28.3762   -0.2747   12.2779 N   0  0  0  0  0  0  0  0  0  0  0  0
   25.2043    4.4308    8.4252 O   0  0  0  0  0  0  0  0  0  0  0  0
   26.4746    3.8794    8.0587 C   0  0  1  0  0  0  0  0  0  0  0  0
   28.6238    1.3876    9.9506 O   0  0  0  0  0  0  0  0  0  0  0  0
   27.5259    4.9912    8.0296 C   0  0  1  0  0  0  0  0  0  0  0  0
   28.4084   -0.4816    8.5537 O   0  0  0  0  0  0  0  0  0  0  0  0
   28.9119    4.4139    7.7228 C   0  0  0  0  0  0  0  0  0  0  0  0
   31.8700   -1.6184    9.1915 O   0  0  0  0  0  0  0  0  0  0  0  0
   29.2781    3.3823    8.7935 C   0  0  1  0  0  0  0  0  0  0  0  0
   30.7064   -1.8682   11.7632 O   0  0  0  0  0  0  0  0  0  0  0  0
   28.2523    2.2469    8.8599 C   0  0  2  0  0  0  0  0  0  0  0  0
   28.0809    0.0601    9.8466 C   0  0  1  0  0  0  0  0  0  0  0  0
   29.8233   -0.6353    8.3226 C   0  0  2  0  0  0  0  0  0  0  0  0
   30.0770   -1.2486    6.9437 C   0  0  0  0  0  0  0  0  0  0  0  0
   30.4532   -1.5470    9.3791 C   0  0  2  0  0  0  0  0  0  0  0  0
   30.1735   -0.9855   10.7741 C   0  0  1  0  0  0  0  0  0  0  0  0
   28.6601   -0.8343   10.9495 C   0  0  1  0  0  0  0  0  0  0  0  0
  5  4  1  6  0  0  0
  5  8  1  0  0  0  0
  5 16  1  0  0  0  0
  8  7  1  1  0  0  0
  8 10  1  0  0  0  0
 10  1  1  6  0  0  0
 10 12  1  0  0  0  0
 11 18  1  0  0  0  0
 12 14  1  0  0  0  0
 14  2  1  6  0  0  0
 14 16  1  0  0  0  0
 16  9  1  1  0  0  0
 17  9  1  6  0  0  0
 17 11  1  0  0  0  0
 17 22  1  0  0  0  0
 18 19  1  6  0  0  0
 18 20  1  0  0  0  0
 19  3  1  0  0  0  0
 20 13  1  6  0  0  0
 20 21  1  0  0  0  0
 21 15  1  1  0  0  0
 21 22  1  0  0  0  0
 22  6  1  1  0  0  0
M  END
>  <CHROM.1>
81.06819562,52.44868079,62.70896289,28.67683756,1.25807282,8.98430750,-2.28952529
-0.76675894,2.28379988

>  <Name>
2fcx_lig

>  <RI>
224

>  <Rbt.Current_Directory>
/home/itssahil/PROJECTS/Mol_Feturizer/New_Systems/rnas/2fcx

>  <Rbt.Executable>
rbdock ($Id: //depot/dev/client3/rdock/2013.1/src/exe/rbdock.cxx#4 $)

>  <Rbt.Library>
libRbt.so (2013.1, Build901 2013/11/27)

>  <Rbt.Parameter_File>
/export/apps/rDock/src/rDock_2013.1_src/data/scripts/dock_solv.prm

>  <Rbt.Receptor>
prm/blind_docking_60.prm

>  <SCORE>
-15.7328

>  <SCORE.INTER>
-14.634

>  <SCORE.INTER.CONST>
1

>  <SCORE.INTER.POLAR>
-2.67338

>  <SCORE.INTER.ROT>
3

>  <SCORE.INTER.SOLV>
12.5715

>  <SCORE.INTER.VDW>
-10.6352

>  <SCORE.INTER.norm>
-0.665182

>  <SCORE.INTRA>
-1.32141

>  <SCORE.INTRA.DIHEDRAL>
-2.598

>  <SCORE.INTRA.DIHEDRAL.0>
4.88619

>  <SCORE.INTRA.POLAR>
0

>  <SCORE.INTRA.POLAR.0>
0

>  <SCORE.INTRA.REPUL>
0

>  <SCORE.INTRA.REPUL.0>
0

>  <SCORE.INTRA.SOLV>
0.267022

>  <SCORE.INTRA.SOLV.lig_0>
-73.8187

>  <SCORE.INTRA.VDW>
-0.155917

>  <SCORE.INTRA.VDW.0>
-1.32335

>  <SCORE.INTRA.norm>
-0.060064

>  <SCORE.RESTR>
0.222618

>  <SCORE.RESTR.CAVITY>
0.222618

>  <SCORE.RESTR.norm>
0.010119

>  <SCORE.SYSTEM>
0

>  <SCORE.SYSTEM.CONST>
0

>  <SCORE.SYSTEM.DIHEDRAL>
0

>  <SCORE.SYSTEM.SOLV>
0

>  <SCORE.SYSTEM.norm>
0

>  <SCORE.heavy>
22

>  <SCORE.norm>
-0.715127

>  <RMSD>
11.016

$$$$
2fcx_lig
 OpenBabel11021811433D
libRbt.so/2013.1/901 2013/11/27
 22 23  0  0  0  0  0  0  0  0999 V2000
   27.3661    5.9570    6.9957 N   0  0  0  0  0  0  0  0  0  0  0  0
   30.6337    2.6788    8.6238 N   0  0  0  0  0  0  0  0  0  0  0  0
   29.6957   -0.2867    5.9185 N   0  0  0  0  0  0  0  0  0  0  0  0
   25.8683    1.7762    9.0197 O   0  0  0  0  0  0  0  0  0  0  0  0
   26.8597    2.8053    9.0802 C   0  0  2  0  0  0  0  0  0  0  0  0
   28.2692   -0.3952   12.2788 N   0  0  0  0  0  0  0  0  0  0  0  0
   25.2971    4.4784    8.3611 O   0  0  0  0  0  0  0  0  0  0  0  0
   26.5587    3.8828    8.0358 C   0  0  1  0  0  0  0  0  0  0  0  0
   28.5616    1.3258    9.9999 O   0  0  0  0  0  0  0  0  0  0  0  0
   27.6477    4.9580    8.0370 C   0  0  1  0  0  0  0  0  0  0  0  0
   28.4029   -0.5107    8.5529 O   0  0  0  0  0  0  0  0  0  0  0  0
   29.0221    4.3328    7.7750 C   0  0  0  0  0  0  0  0  0  0  0  0
   31.8577   -1.6292    9.2559 O   0  0  0  0  0  0  0  0  0  0  0  0
   29.3194    3.2930    8.8591 C   0  0  1  0  0  0  0  0  0  0  0  0
   30.6287   -1.9530   11.7886 O   0  0  0  0  0  0  0  0  0  0  0  0
   28.2538    2.1935    8.8961 C   0  0  2  0  0  0  0  0  0  0  0  0
   28.0354   -0.0040    9.8492 C   0  0  1  0  0  0  0  0  0  0  0  0
   29.8249   -0.6450    8.3563 C   0  0  2  0  0  0  0  0  0  0  0  0
   30.1216   -1.2220    6.9704 C   0  0  0  0  0  0  0  0  0  0  0  0
   30.4358   -1.5761    9.4070 C   0  0  2  0  0  0  0  0  0  0  0  0
   30.1132   -1.0516   10.8072 C   0  0  1  0  0  0  0  0  0  0  0  0
   28.5942   -0.9194   10.9454 C   0  0  1  0  0  0  0  0  0  0  0  0
  5  4  1  6  0  0  0
  5  8  1  0  0  0  0
  5 16  1  0  0  0  0
  8  7  1  1  0  0  0
  8 10  1  0  0  0  0
 10  1  1  6  0  0  0
 10 12  1  0  0  0  0
 11 18  1  0  0  0  0
 12 14  1  0  0  0  0
 14  2  1  6  0  0  0
 14 16  1  0  0  0  0
 16  9  1  1  0  0  0
 17  9  1  1  0  0  0
 17 11  1  0  0  0  0
 17 22  1  0  0  0  0
 18 19  1  6  0  0  0
 18 20  1  0  0  0  0
 19  3  1  0  0  0  0
 20 13  1  6  0  0  0
 20 21  1  0  0  0  0
 21 15  1  1  0  0  0
 21 22  1  0  0  0  0
 22  6  1  1  0  0  0
M  END
>  <CHROM.1>
84.11531808,50.19266046,65.01409649,28.69279197,1.22237408,9.00326204,-2.23775204
-0.73822221,2.33290857

>  <Name>
2fcx_lig

>  <RI>
224

>  <Rbt.Current_Directory>
/home/itssahil/PROJECTS/Mol_Feturizer/New_Systems/rnas/2fcx

>  <Rbt.Executable>
rbdock ($Id: //depot/dev/client3/rdock/2013.1/src/exe/rbdock.cxx#4 $)

>  <Rbt.Library>
libRbt.so (2013.1, Build901 2013/11/27)

>  <Rbt.Parameter_File>
/export/apps/rDock/src/rDock_2013.1_src/data/scripts/dock_solv.prm

>  <Rbt.Receptor>
prm/blind_docking_60.prm

>  <SCORE>
-15.0093

>  <SCORE.INTER>
-14.2495

>  <SCORE.INTER.CONST>
1

>  <SCORE.INTER.POLAR>
-2.63867

>  <SCORE.INTER.ROT>
3

>  <SCORE.INTER.SOLV>
12.1878

>  <SCORE.INTER.VDW>
-10.3667

>  <SCORE.INTER.norm>
-0.647703

>  <SCORE.INTRA>
-0.793592

>  <SCORE.INTRA.DIHEDRAL>
-1.81791

>  <SCORE.INTRA.DIHEDRAL.0>
4.88619

>  <SCORE.INTRA.POLAR>
0

>  <SCORE.INTRA.POLAR.0>
0

>  <SCORE.INTRA.REPUL>
0

>  <SCORE.INTRA.REPUL.0>
0

>  <SCORE.INTRA.SOLV>
0.736273

>  <SCORE.INTRA.SOLV.lig_0>
-73.8187

>  <SCORE.INTRA.VDW>
-0.252775

>  <SCORE.INTRA.VDW.0>
-1.32335

>  <SCORE.INTRA.norm>
-0.0360723

>  <SCORE.RESTR>
0.0338053

>  <SCORE.RESTR.CAVITY>
0.0338053

>  <SCORE.RESTR.norm>
0.0015366

>  <SCORE.SYSTEM>
0

>  <SCORE.SYSTEM.CONST>
0

>  <SCORE.SYSTEM.DIHEDRAL>
0

>  <SCORE.SYSTEM.SOLV>
0

>  <SCORE.SYSTEM.norm>
0

>  <SCORE.heavy>
22

>  <SCORE.norm>
-0.682239

>  <RMSD>
11.016

$$$$
2fcx_lig
 OpenBabel11021811433D
libRbt.so/2013.1/901 2013/11/27
 22 23  0  0  0  0  0  0  0  0999 V2000
   27.8944    6.7256    6.4978 N   0  0  0  0  0  0  0  0  0  0  0  0
   28.9813    1.9941    5.7863 N   0  0  0  0  0  0  0  0  0  0  0  0
   25.8304    0.0881    8.2801 N   0  0  0  0  0  0  0  0  0  0  0  0
   29.0294    3.8587   10.2808 O   0  0  0  0  0  0  0  0  0  0  0  0
   29.3201    4.1392    8.9089 C   0  0  2  0  0  0  0  0  0  0  0  0
   32.0769    0.6657   10.0122 N   0  0  0  0  0  0  0  0  0  0  0  0
   28.8788    6.4799    9.1999 O   0  0  0  0  0  0  0  0  0  0  0  0
   28.4906    5.3341    8.4329 C   0  0  1  0  0  0  0  0  0  0  0  0
   30.0000    1.8514    8.4244 O   0  0  0  0  0  0  0  0  0  0  0  0
   28.7353    5.6062    6.9469 C   0  0  1  0  0  0  0  0  0  0  0  0
   28.3692    0.6526    9.6055 O   0  0  0  0  0  0  0  0  0  0  0  0
   28.4074    4.3645    6.1108 C   0  0  0  0  0  0  0  0  0  0  0  0
   29.1206   -2.5121    7.8444 O   0  0  0  0  0  0  0  0  0  0  0  0
   29.2830    3.1971    6.5749 C   0  0  1  0  0  0  0  0  0  0  0  0
   31.5458   -2.0446    9.2335 O   0  0  0  0  0  0  0  0  0  0  0  0
   29.0719    2.8866    8.0597 C   0  0  2  0  0  0  0  0  0  0  0  0
   29.6909    1.2184    9.6780 C   0  0  1  0  0  0  0  0  0  0  0  0
   28.2284   -0.3861    8.6154 C   0  0  2  0  0  0  0  0  0  0  0  0
   26.8072   -0.9531    8.6327 C   0  0  0  0  0  0  0  0  0  0  0  0
   29.2079   -1.5320    8.8833 C   0  0  2  0  0  0  0  0  0  0  0  0
   30.6367   -0.9874    8.9213 C   0  0  1  0  0  0  0  0  0  0  0  0
   30.7146    0.1169    9.9789 C   0  0  1  0  0  0  0  0  0  0  0  0
  5  4  1  1  0  0  0
  5  8  1  0  0  0  0
  5 16  1  0  0  0  0
  8  7  1  1  0  0  0
  8 10  1  0  0  0  0
 10  1  1  6  0  0  0
 10 12  1  0  0  0  0
 11 18  1  0  0  0  0
 12 14  1  0  0  0  0
 14  2  1  6  0  0  0
 14 16  1  0  0  0  0
 16  9  1  1  0  0  0
 17  9  1  6  0  0  0
 17 11  1  0  0  0  0
 17 22  1  0  0  0  0
 18 19  1  1  0  0  0
 18 20  1  0  0  0  0
 19  3  1  0  0  0  0
 20 13  1  6  0  0  0
 20 21  1  0  0  0  0
 21 15  1  1  0  0  0
 21 22  1  0  0  0  0
 22  6  1  6  0  0  0
M  END
>  <CHROM.1>
74.82092877,58.48342032,62.59216761,29.11273918,1.83131581,8.42848782,1.75458153
-0.61138107,-0.08188957

>  <Name>
2fcx_lig

>  <RI>
224

>  <Rbt.Current_Directory>
/home/itssahil/PROJECTS/Mol_Feturizer/New_Systems/rnas/2fcx

>  <Rbt.Executable>
rbdock ($Id: //depot/dev/client3/rdock/2013.1/src/exe/rbdock.cxx#4 $)

>  <Rbt.Library>
libRbt.so (2013.1, Build901 2013/11/27)

>  <Rbt.Parameter_File>
/export/apps/rDock/src/rDock_2013.1_src/data/scripts/dock_solv.prm

>  <Rbt.Receptor>
prm/blind_docking_100.prm

>  <SCORE>
-13.4254

>  <SCORE.INTER>
-11.5463

>  <SCORE.INTER.CONST>
1

>  <SCORE.INTER.POLAR>
-2.00826

>  <SCORE.INTER.ROT>
3

>  <SCORE.INTER.SOLV>
14.7007

>  <SCORE.INTER.VDW>
-11.5036

>  <SCORE.INTER.norm>
-0.524831

>  <SCORE.INTRA>
-2.10786

>  <SCORE.INTRA.DIHEDRAL>
-3.81276

>  <SCORE.INTRA.DIHEDRAL.0>
4.88619

>  <SCORE.INTRA.POLAR>
0

>  <SCORE.INTRA.POLAR.0>
0

>  <SCORE.INTRA.REPUL>
0

>  <SCORE.INTRA.REPUL.0>
0

>  <SCORE.INTRA.SOLV>
-0.558617

>  <SCORE.INTRA.SOLV.lig_0>
-73.8187

>  <SCORE.INTRA.VDW>
0.0778346

>  <SCORE.INTRA.VDW.0>
-1.32335

>  <SCORE.INTRA.norm>
-0.0958116

>  <SCORE.RESTR>
0.228707

>  <SCORE.RESTR.CAVITY>
0.228707

>  <SCORE.RESTR.norm>
0.0103958

>  <SCORE.SYSTEM>
0

>  <SCORE.SYSTEM.CONST>
0

>  <SCORE.SYSTEM.DIHEDRAL>
0

>  <SCORE.SYSTEM.SOLV>
0

>  <SCORE.SYSTEM.norm>
0

>  <SCORE.heavy>
22

>  <SCORE.norm>
-0.610247

>  <RMSD>
11.021

$$$$
2fcx_lig
 OpenBabel11021811433D
libRbt.so/2013.1/901 2013/11/27
 22 23  0  0  0  0  0  0  0  0999 V2000
   27.3725    5.9393    6.9980 N   0  0  0  0  0  0  0  0  0  0  0  0
   30.6345    2.6570    8.6291 N   0  0  0  0  0  0  0  0  0  0  0  0
   29.7149   -0.3029    5.9310 N   0  0  0  0  0  0  0  0  0  0  0  0
   25.8676    1.7644    9.0287 O   0  0  0  0  0  0  0  0  0  0  0  0
   26.8611    2.7916    9.0873 C   0  0  2  0  0  0  0  0  0  0  0  0
   28.2630   -0.4060   12.2901 N   0  0  0  0  0  0  0  0  0  0  0  0
   25.3014    4.4667    8.3666 O   0  0  0  0  0  0  0  0  0  0  0  0
   26.5616    3.8682    8.0415 C   0  0  1  0  0  0  0  0  0  0  0  0
   28.5605    1.3100   10.0082 O   0  0  0  0  0  0  0  0  0  0  0  0
   27.6527    4.9413    8.0406 C   0  0  1  0  0  0  0  0  0  0  0  0
   28.3988   -0.5289    8.5646 O   0  0  0  0  0  0  0  0  0  0  0  0
   29.0257    4.3130    7.7788 C   0  0  0  0  0  0  0  0  0  0  0  0
   31.8509   -1.6534    9.2719 O   0  0  0  0  0  0  0  0  0  0  0  0
   29.3215    3.2742    8.8642 C   0  0  1  0  0  0  0  0  0  0  0  0
   30.6195   -1.9698   11.8044 O   0  0  0  0  0  0  0  0  0  0  0  0
   28.2539    2.1768    8.9033 C   0  0  2  0  0  0  0  0  0  0  0  0
   28.0316   -0.0189    9.8597 C   0  0  1  0  0  0  0  0  0  0  0  0
   29.8207   -0.6665    8.3691 C   0  0  2  0  0  0  0  0  0  0  0  0
   30.1170   -1.2468    6.9845 C   0  0  0  0  0  0  0  0  0  0  0  0
   30.4290   -1.5970    9.4220 C   0  0  2  0  0  0  0  0  0  0  0  0
   30.1066   -1.0691   10.8209 C   0  0  1  0  0  0  0  0  0  0  0  0
   28.5878   -0.9334   10.9580 C   0  0  1  0  0  0  0  0  0  0  0  0
  5  4  1  6  0  0  0
  5  8  1  0  0  0  0
  5 16  1  0  0  0  0
  8  7  1  1  0  0  0
  8 10  1  0  0  0  0
 10  1  1  6  0  0  0
 10 12  1  0  0  0  0
 11 18  1  0  0  0  0
 12 14  1  0  0  0  0
 14  2  1  6  0  0  0
 14 16  1  0  0  0  0
 16  9  1  1  0  0  0
 17  9  1  1  0  0  0
 17 11  1  0  0  0  0
 17 22  1  0  0  0  0
 18 19  1  6  0  0  0
 18 20  1  0  0  0  0
 19  3  1  0  0  0  0
 20 13  1  6  0  0  0
 20 21  1  0  0  0  0
 21 15  1  1  0  0  0
 21 22  1  0  0  0  0
 22  6  1  1  0  0  0
M  END
>  <CHROM.1>
84.11245278,50.26625408,65.98118213,28.69207925,1.20517123,9.01281487,-2.23523897
-0.73818790,2.33396087

>  <Name>
2fcx_lig

>  <RI>
224

>  <Rbt.Current_Directory>
/home/itssahil/PROJECTS/Mol_Feturizer/New_Systems/rnas/2fcx

>  <Rbt.Executable>
rbdock ($Id: //depot/dev/client3/rdock/2013.1/src/exe/rbdock.cxx#4 $)

>  <Rbt.Library>
libRbt.so (2013.1, Build901 2013/11/27)

>  <Rbt.Parameter_File>
/export/apps/rDock/src/rDock_2013.1_src/data/scripts/dock_solv.prm

>  <Rbt.Receptor>
prm/blind_docking_60.prm

>  <SCORE>
-15.0027

>  <SCORE.INTER>
-14.2508

>  <SCORE.INTER.CONST>
1

>  <SCORE.INTER.POLAR>
-2.64942

>  <SCORE.INTER.ROT>
3

>  <SCORE.INTER.SOLV>
12.1657

>  <SCORE.INTER.VDW>
-10.3244

>  <SCORE.INTER.norm>
-0.647764

>  <SCORE.INTRA>
-0.779336

>  <SCORE.INTRA.DIHEDRAL>
-1.78786

>  <SCORE.INTRA.DIHEDRAL.0>
4.88619

>  <SCORE.INTRA.POLAR>
0

>  <SCORE.INTRA.POLAR.0>
0

>  <SCORE.INTRA.REPUL>
0

>  <SCORE.INTRA.REPUL.0>
0

>  <SCORE.INTRA.SOLV>
0.742781

>  <SCORE.INTRA.SOLV.lig_0>
-73.8187

>  <SCORE.INTRA.VDW>
-0.256794

>  <SCORE.INTRA.VDW.0>
-1.32335

>  <SCORE.INTRA.norm>
-0.0354244

>  <SCORE.RESTR>
0.0274292

>  <SCORE.RESTR.CAVITY>
0.0274292

>  <SCORE.RESTR.norm>
0.00124678

>  <SCORE.SYSTEM>
0

>  <SCORE.SYSTEM.CONST>
0

>  <SCORE.SYSTEM.DIHEDRAL>
0

>  <SCORE.SYSTEM.SOLV>
0

>  <SCORE.SYSTEM.norm>
0

>  <SCORE.heavy>
22

>  <SCORE.norm>
-0.681942

>  <RMSD>
11.023

$$$$
2fcx_lig
 OpenBabel11021811433D
libRbt.so/2013.1/901 2013/11/27
 22 23  0  0  0  0  0  0  0  0999 V2000
   28.5514    7.5994    7.4798 N   0  0  0  0  0  0  0  0  0  0  0  0
   27.5537    3.2142    5.5177 N   0  0  0  0  0  0  0  0  0  0  0  0
   23.5757    2.9659    6.5069 N   0  0  0  0  0  0  0  0  0  0  0  0
   27.3161    3.8409   10.3375 O   0  0  0  0  0  0  0  0  0  0  0  0
   28.0301    4.2151    9.1561 C   0  0  2  0  0  0  0  0  0  0  0  0
   28.3025   -0.4673    9.3469 N   0  0  0  0  0  0  0  0  0  0  0  0
   28.6216    6.3491   10.0804 O   0  0  0  0  0  0  0  0  0  0  0  0
   27.9663    5.7324    8.9658 C   0  0  1  0  0  0  0  0  0  0  0  0
   27.7151    2.0470    8.0924 O   0  0  0  0  0  0  0  0  0  0  0  0
   28.6651    6.1457    7.6685 C   0  0  1  0  0  0  0  0  0  0  0  0
   25.4152    1.6588    8.3190 O   0  0  0  0  0  0  0  0  0  0  0  0
   28.0361    5.4322    6.4670 C   0  0  0  0  0  0  0  0  0  0  0  0
   25.3350   -0.7576    5.5197 O   0  0  0  0  0  0  0  0  0  0  0  0
   28.1546    3.9178    6.6596 C   0  0  1  0  0  0  0  0  0  0  0  0
   26.9952   -2.1004    7.3826 O   0  0  0  0  0  0  0  0  0  0  0  0
   27.4679    3.4556    7.9482 C   0  0  2  0  0  0  0  0  0  0  0  0
   26.7137    1.3644    8.8664 C   0  0  1  0  0  0  0  0  0  0  0  0
   25.2281    1.1925    6.9675 C   0  0  2  0  0  0  0  0  0  0  0  0
   23.8135    1.5150    6.4811 C   0  0  0  0  0  0  0  0  0  0  0  0
   25.4347   -0.3220    6.8791 C   0  0  2  0  0  0  0  0  0  0  0  0
   26.8248   -0.6819    7.4060 C   0  0  1  0  0  0  0  0  0  0  0  0
   26.9632   -0.1484    8.8343 C   0  0  1  0  0  0  0  0  0  0  0  0
  5  4  1  1  0  0  0
  5  8  1  0  0  0  0
  5 16  1  0  0  0  0
  8  7  1  1  0  0  0
  8 10  1  0  0  0  0
 10  1  1  6  0  0  0
 10 12  1  0  0  0  0
 11 18  1  0  0  0  0
 12 14  1  0  0  0  0
 14  2  1  6  0  0  0
 14 16  1  0  0  0  0
 16  9  1  1  0  0  0
 17  9  1  6  0  0  0
 17 11  1  0  0  0  0
 17 22  1  0  0  0  0
 18 19  1  1  0  0  0
 18 20  1  0  0  0  0
 19  3  1  0  0  0  0
 20 13  1  6  0  0  0
 20 21  1  0  0  0  0
 21 15  1  1  0  0  0
 21 22  1  0  0  0  0
 22  6  1  6  0  0  0
M  END
>  <CHROM.1>
85.29320141,52.78687583,60.05871890,26.93177523,2.52783416,7.78196050,1.02626089
-0.84519717,-0.24092695

>  <Name>
2fcx_lig

>  <RI>
224

>  <Rbt.Current_Directory>
/home/itssahil/PROJECTS/Mol_Feturizer/New_Systems/rnas/2fcx

>  <Rbt.Executable>
rbdock ($Id: //depot/dev/client3/rdock/2013.1/src/exe/rbdock.cxx#4 $)

>  <Rbt.Library>
libRbt.so (2013.1, Build901 2013/11/27)

>  <Rbt.Parameter_File>
/export/apps/rDock/src/rDock_2013.1_src/data/scripts/dock_solv.prm

>  <Rbt.Receptor>
prm/blind_docking_60.prm

>  <SCORE>
-15.0778

>  <SCORE.INTER>
-14.4327

>  <SCORE.INTER.CONST>
1

>  <SCORE.INTER.POLAR>
-2.12245

>  <SCORE.INTER.ROT>
3

>  <SCORE.INTER.SOLV>
13.6279

>  <SCORE.INTER.VDW>
-12.6896

>  <SCORE.INTER.norm>
-0.656032

>  <SCORE.INTRA>
-0.904008

>  <SCORE.INTRA.DIHEDRAL>
-1.90248

>  <SCORE.INTRA.DIHEDRAL.0>
4.88619

>  <SCORE.INTRA.POLAR>
0

>  <SCORE.INTRA.POLAR.0>
0

>  <SCORE.INTRA.REPUL>
0

>  <SCORE.INTRA.REPUL.0>
0

>  <SCORE.INTRA.SOLV>
0.782603

>  <SCORE.INTRA.SOLV.lig_0>
-73.8187

>  <SCORE.INTRA.VDW>
-0.34407

>  <SCORE.INTRA.VDW.0>
-1.32335

>  <SCORE.INTRA.norm>
-0.0410913

>  <SCORE.RESTR>
0.258961

>  <SCORE.RESTR.CAVITY>
0.258961

>  <SCORE.RESTR.norm>
0.0117709

>  <SCORE.SYSTEM>
0

>  <SCORE.SYSTEM.CONST>
0

>  <SCORE.SYSTEM.DIHEDRAL>
0

>  <SCORE.SYSTEM.SOLV>
0

>  <SCORE.SYSTEM.norm>
0

>  <SCORE.heavy>
22

>  <SCORE.norm>
-0.685352

>  <RMSD>
11.071

$$$$
2fcx_lig
 OpenBabel11021811433D
libRbt.so/2013.1/901 2013/11/27
 22 23  0  0  0  0  0  0  0  0999 V2000
   28.6957    7.2403    7.3683 N   0  0  0  0  0  0  0  0  0  0  0  0
   27.8375    2.6816    5.7695 N   0  0  0  0  0  0  0  0  0  0  0  0
   23.8255    2.7675    6.4782 N   0  0  0  0  0  0  0  0  0  0  0  0
   27.2066    3.7776   10.4685 O   0  0  0  0  0  0  0  0  0  0  0  0
   28.0179    4.0357    9.3193 C   0  0  2  0  0  0  0  0  0  0  0  0
   28.1770   -0.7052    9.8438 N   0  0  0  0  0  0  0  0  0  0  0  0
   28.5437    6.2515   10.0757 O   0  0  0  0  0  0  0  0  0  0  0  0
   27.9790    5.5269    8.9766 C   0  0  1  0  0  0  0  0  0  0  0  0
   27.7791    1.7730    8.4507 O   0  0  0  0  0  0  0  0  0  0  0  0
   28.7849    5.8125    7.7073 C   0  0  1  0  0  0  0  0  0  0  0  0
   25.4557    1.4745    8.5184 O   0  0  0  0  0  0  0  0  0  0  0  0
   28.2530    4.9831    6.5336 C   0  0  0  0  0  0  0  0  0  0  0  0
   25.4916   -1.0531    5.8182 O   0  0  0  0  0  0  0  0  0  0  0  0
   28.3463    3.4951    6.8828 C   0  0  1  0  0  0  0  0  0  0  0  0
   26.9579   -2.3731    7.8523 O   0  0  0  0  0  0  0  0  0  0  0  0
   27.5529    3.1601    8.1493 C   0  0  2  0  0  0  0  0  0  0  0  0
   26.6982    1.1586    9.1732 C   0  0  1  0  0  0  0  0  0  0  0  0
   25.3515    0.9586    7.1760 C   0  0  2  0  0  0  0  0  0  0  0  0
   23.9899    1.3092    6.5720 C   0  0  0  0  0  0  0  0  0  0  0  0
   25.5069   -0.5645    7.1630 C   0  0  2  0  0  0  0  0  0  0  0  0
   26.8398   -0.9499    7.8069 C   0  0  1  0  0  0  0  0  0  0  0  0
   26.8922   -0.3619    9.2196 C   0  0  1  0  0  0  0  0  0  0  0  0
  5  4  1  1  0  0  0
  5  8  1  0  0  0  0
  5 16  1  0  0  0  0
  8  7  1  1  0  0  0
  8 10  1  0  0  0  0
 10  1  1  6  0  0  0
 10 12  1  0  0  0  0
 11 18  1  0  0  0  0
 12 14  1  0  0  0  0
 14  2  1  6  0  0  0
 14 16  1  0  0  0  0
 16  9  1  1  0  0  0
 17  9  1  6  0  0  0
 17 11  1  0  0  0  0
 17 22  1  0  0  0  0
 18 19  1  1  0  0  0
 18 20  1  0  0  0  0
 19  3  1  0  0  0  0
 20 13  1  6  0  0  0
 20 21  1  0  0  0  0
 21 15  1  1  0  0  0
 21 22  1  0  0  0  0
 22  6  1  6  0  0  0
M  END
>  <CHROM.1>
86.76735674,48.57142523,62.08890902,26.99823840,2.26794627,7.98469734,0.97537528
-0.91750743,-0.35896994

>  <Name>
2fcx_lig

>  <RI>
224

>  <Rbt.Current_Directory>
/home/itssahil/PROJECTS/Mol_Feturizer/New_Systems/rnas/2fcx

>  <Rbt.Executable>
rbdock ($Id: //depot/dev/client3/rdock/2013.1/src/exe/rbdock.cxx#4 $)

>  <Rbt.Library>
libRbt.so (2013.1, Build901 2013/11/27)

>  <Rbt.Parameter_File>
/export/apps/rDock/src/rDock_2013.1_src/data/scripts/dock_solv.prm

>  <Rbt.Receptor>
prm/blind_docking_60.prm

>  <SCORE>
-14.6352

>  <SCORE.INTER>
-14.4504

>  <SCORE.INTER.CONST>
1

>  <SCORE.INTER.POLAR>
-2.14622

>  <SCORE.INTER.ROT>
3

>  <SCORE.INTER.SOLV>
13.6576

>  <SCORE.INTER.VDW>
-12.6321

>  <SCORE.INTER.norm>
-0.656838

>  <SCORE.INTRA>
-0.376272

>  <SCORE.INTRA.DIHEDRAL>
-1.2444

>  <SCORE.INTRA.DIHEDRAL.0>
4.88619

>  <SCORE.INTRA.POLAR>
0

>  <SCORE.INTRA.POLAR.0>
0

>  <SCORE.INTRA.REPUL>
0

>  <SCORE.INTRA.REPUL.0>
0

>  <SCORE.INTRA.SOLV>
1.08903

>  <SCORE.INTRA.SOLV.lig_0>
-73.8187

>  <SCORE.INTRA.VDW>
-0.298585

>  <SCORE.INTRA.VDW.0>
-1.32335

>  <SCORE.INTRA.norm>
-0.0171033

>  <SCORE.RESTR>
0.191512

>  <SCORE.RESTR.CAVITY>
0.191512

>  <SCORE.RESTR.norm>
0.00870508

>  <SCORE.SYSTEM>
0

>  <SCORE.SYSTEM.CONST>
0

>  <SCORE.SYSTEM.DIHEDRAL>
0

>  <SCORE.SYSTEM.SOLV>
0

>  <SCORE.SYSTEM.norm>
0

>  <SCORE.heavy>
22

>  <SCORE.norm>
-0.665236

>  <RMSD>
11.078

$$$$
2fcx_lig
 OpenBabel11021811433D
libRbt.so/2013.1/901 2013/11/27
 22 23  0  0  0  0  0  0  0  0999 V2000
   28.5476    7.5953    7.4832 N   0  0  0  0  0  0  0  0  0  0  0  0
   27.5396    3.2168    5.5115 N   0  0  0  0  0  0  0  0  0  0  0  0
   23.5764    2.9696    6.4450 N   0  0  0  0  0  0  0  0  0  0  0  0
   27.2985    3.8348   10.3323 O   0  0  0  0  0  0  0  0  0  0  0  0
   28.0148    4.2093    9.1524 C   0  0  2  0  0  0  0  0  0  0  0  0
   28.2736   -0.4710    9.3409 N   0  0  0  0  0  0  0  0  0  0  0  0
   28.6114    6.3398   10.0815 O   0  0  0  0  0  0  0  0  0  0  0  0
   27.9556    5.7271    8.9650 C   0  0  1  0  0  0  0  0  0  0  0  0
   27.6949    2.0442    8.0842 O   0  0  0  0  0  0  0  0  0  0  0  0
   28.6570    6.1410    7.6693 C   0  0  1  0  0  0  0  0  0  0  0  0
   25.3935    1.6581    8.2992 O   0  0  0  0  0  0  0  0  0  0  0  0
   28.0273    5.4316    6.4657 C   0  0  0  0  0  0  0  0  0  0  0  0
   25.3249   -0.7574    5.4988 O   0  0  0  0  0  0  0  0  0  0  0  0
   28.1413    3.9164    6.6554 C   0  0  1  0  0  0  0  0  0  0  0  0
   26.9745   -2.1023    7.3697 O   0  0  0  0  0  0  0  0  0  0  0  0
   27.4518    3.4538    7.9424 C   0  0  2  0  0  0  0  0  0  0  0  0
   26.6890    1.3623    8.8529 C   0  0  1  0  0  0  0  0  0  0  0  0
   25.2126    1.1923    6.9466 C   0  0  2  0  0  0  0  0  0  0  0  0
   23.8008    1.5163    6.4532 C   0  0  0  0  0  0  0  0  0  0  0  0
   25.4182   -0.3224    6.8588 C   0  0  2  0  0  0  0  0  0  0  0  0
   26.8054   -0.6837    7.3925 C   0  0  1  0  0  0  0  0  0  0  0  0
   26.9371   -0.1507    8.8217 C   0  0  1  0  0  0  0  0  0  0  0  0
  5  4  1  1  0  0  0
  5  8  1  0  0  0  0
  5 16  1  0  0  0  0
  8  7  1  1  0  0  0
  8 10  1  0  0  0  0
 10  1  1  6  0  0  0
 10 12  1  0  0  0  0
 11 18  1  0  0  0  0
 12 14  1  0  0  0  0
 14  2  1  6  0  0  0
 14 16  1  0  0  0  0
 16  9  1  1  0  0  0
 17  9  1  6  0  0  0
 17 11  1  0  0  0  0
 17 22  1  0  0  0  0
 18 19  1  1  0  0  0
 18 20  1  0  0  0  0
 19  3  1  0  0  0  0
 20 13  1  6  0  0  0
 20 21  1  0  0  0  0
 21 15  1  1  0  0  0
 21 22  1  0  0  0  0
 22  6  1  6  0  0  0
M  END
>  <CHROM.1>
85.43759361,52.96029897,61.53447805,26.91657835,2.52564705,7.77008651,1.01976318
-0.85097003,-0.24498707

>  <Name>
2fcx_lig

>  <RI>
224

>  <Rbt.Current_Directory>
/home/itssahil/PROJECTS/Mol_Feturizer/New_Systems/rnas/2fcx

>  <Rbt.Executable>
rbdock ($Id: //depot/dev/client3/rdock/2013.1/src/exe/rbdock.cxx#4 $)

>  <Rbt.Library>
libRbt.so (2013.1, Build901 2013/11/27)

>  <Rbt.Parameter_File>
/export/apps/rDock/src/rDock_2013.1_src/data/scripts/dock_solv.prm

>  <Rbt.Receptor>
prm/blind_docking_60.prm

>  <SCORE>
-15.032

>  <SCORE.INTER>
-14.3906

>  <SCORE.INTER.CONST>
1

>  <SCORE.INTER.POLAR>
-2.12244

>  <SCORE.INTER.ROT>
3

>  <SCORE.INTER.SOLV>
13.6835

>  <SCORE.INTER.VDW>
-12.6801

>  <SCORE.INTER.norm>
-0.654117

>  <SCORE.INTRA>
-0.892521

>  <SCORE.INTRA.DIHEDRAL>
-1.8803

>  <SCORE.INTRA.DIHEDRAL.0>
4.88619

>  <SCORE.INTRA.POLAR>
0

>  <SCORE.INTRA.POLAR.0>
0

>  <SCORE.INTRA.REPUL>
0

>  <SCORE.INTRA.REPUL.0>
0

>  <SCORE.INTRA.SOLV>
0.810884

>  <SCORE.INTRA.SOLV.lig_0>
-73.8187

>  <SCORE.INTRA.VDW>
-0.357814

>  <SCORE.INTRA.VDW.0>
-1.32335

>  <SCORE.INTRA.norm>
-0.0405691

>  <SCORE.RESTR>
0.251067

>  <SCORE.RESTR.CAVITY>
0.251067

>  <SCORE.RESTR.norm>
0.0114121

>  <SCORE.SYSTEM>
0

>  <SCORE.SYSTEM.CONST>
0

>  <SCORE.SYSTEM.DIHEDRAL>
0

>  <SCORE.SYSTEM.SOLV>
0

>  <SCORE.SYSTEM.norm>
0

>  <SCORE.heavy>
22

>  <SCORE.norm>
-0.683274

>  <RMSD>
11.084

$$$$
2fcx_lig
 OpenBabel11021811433D
libRbt.so/2013.1/901 2013/11/27
 22 23  0  0  0  0  0  0  0  0999 V2000
   29.3853    6.1858    6.2928 N   0  0  0  0  0  0  0  0  0  0  0  0
   28.6790    1.3303    6.3042 N   0  0  0  0  0  0  0  0  0  0  0  0
   24.5732    2.4035    6.5684 N   0  0  0  0  0  0  0  0  0  0  0  0
   27.3739    3.9941   10.1619 O   0  0  0  0  0  0  0  0  0  0  0  0
   28.3538    3.8564    9.1292 C   0  0  2  0  0  0  0  0  0  0  0  0
   28.1854   -0.8195   10.8814 N   0  0  0  0  0  0  0  0  0  0  0  0
   28.8076    6.2127    9.1206 O   0  0  0  0  0  0  0  0  0  0  0  0
   28.3987    5.1282    8.2789 C   0  0  1  0  0  0  0  0  0  0  0  0
   28.1994    1.4262    9.0933 O   0  0  0  0  0  0  0  0  0  0  0  0
   29.3919    4.9736    7.1248 C   0  0  1  0  0  0  0  0  0  0  0  0
   25.8674    1.3185    8.8892 O   0  0  0  0  0  0  0  0  0  0  0  0
   29.0245    3.7659    6.2561 C   0  0  0  0  0  0  0  0  0  0  0  0
   25.9908   -1.6048    6.6264 O   0  0  0  0  0  0  0  0  0  0  0  0
   29.0323    2.5012    7.1193 C   0  0  1  0  0  0  0  0  0  0  0  0
   27.0647   -2.6883    9.0144 O   0  0  0  0  0  0  0  0  0  0  0  0
   28.0509    2.6090    8.2902 C   0  0  2  0  0  0  0  0  0  0  0  0
   26.9846    1.0189    9.7461 C   0  0  1  0  0  0  0  0  0  0  0  0
   25.8790    0.6034    7.6373 C   0  0  2  0  0  0  0  0  0  0  0  0
   24.6412    0.9543    6.8088 C   0  0  0  0  0  0  0  0  0  0  0  0
   25.8885   -0.9094    7.8728 C   0  0  2  0  0  0  0  0  0  0  0  0
   27.0897   -1.2860    8.7416 C   0  0  1  0  0  0  0  0  0  0  0  0
   27.0252   -0.4848   10.0446 C   0  0  1  0  0  0  0  0  0  0  0  0
  5  4  1  1  0  0  0
  5  8  1  0  0  0  0
  5 16  1  0  0  0  0
  8  7  1  1  0  0  0
  8 10  1  0  0  0  0
 10  1  1  6  0  0  0
 10 12  1  0  0  0  0
 11 18  1  0  0  0  0
 12 14  1  0  0  0  0
 14  2  1  6  0  0  0
 14 16  1  0  0  0  0
 16  9  1  1  0  0  0
 17  9  1  6  0  0  0
 17 11  1  0  0  0  0
 17 22  1  0  0  0  0
 18 19  1  6  0  0  0
 18 20  1  0  0  0  0
 19  3  1  0  0  0  0
 20 13  1  6  0  0  0
 20 21  1  0  0  0  0
 21 15  1  1  0  0  0
 21 22  1  0  0  0  0
 22  6  1  1  0  0  0
M  END
>  <CHROM.1>
90.78151394,34.46134125,57.56773378,27.43528984,1.82642862,8.19931862,0.85092774
-1.00295914,-0.75110471

>  <Name>
2fcx_lig

>  <RI>
2.51704e+07

>  <Rbt.Current_Directory>
/home/itssahil/PROJECTS/Mol_Feturizer/New_Systems/rnas/2fcx

>  <Rbt.Executable>
rbdock ($Id: //depot/dev/client3/rdock/2013.1/src/exe/rbdock.cxx#4 $)

>  <Rbt.Library>
libRbt.so (2013.1, Build901 2013/11/27)

>  <Rbt.Parameter_File>
/export/apps/rDock/src/rDock_2013.1_src/data/scripts/dock_solv.prm

>  <Rbt.Receptor>
prm/blind_docking_80.prm

>  <SCORE>
-8.33234

>  <SCORE.INTER>
-10.4997

>  <SCORE.INTER.CONST>
1

>  <SCORE.INTER.POLAR>
-1.32191

>  <SCORE.INTER.ROT>
3

>  <SCORE.INTER.SOLV>
13.7781

>  <SCORE.INTER.VDW>
-12.7861

>  <SCORE.INTER.norm>
-0.477258

>  <SCORE.INTRA>
1.99848

>  <SCORE.INTRA.DIHEDRAL>
1.65751

>  <SCORE.INTRA.DIHEDRAL.0>
4.88619

>  <SCORE.INTRA.POLAR>
0

>  <SCORE.INTRA.POLAR.0>
0

>  <SCORE.INTRA.REPUL>
0

>  <SCORE.INTRA.REPUL.0>
0

>  <SCORE.INTRA.SOLV>
2.04965

>  <SCORE.INTRA.SOLV.lig_0>
-73.8187

>  <SCORE.INTRA.VDW>
0.144899

>  <SCORE.INTRA.VDW.0>
-1.32335

>  <SCORE.INTRA.norm>
0.09084

>  <SCORE.RESTR>
0.16885

>  <SCORE.RESTR.CAVITY>
0.16885

>  <SCORE.RESTR.norm>
0.00767501

>  <SCORE.SYSTEM>
0

>  <SCORE.SYSTEM.CONST>
0

>  <SCORE.SYSTEM.DIHEDRAL>
0

>  <SCORE.SYSTEM.SOLV>
0

>  <SCORE.SYSTEM.norm>
0

>  <SCORE.heavy>
22

>  <SCORE.norm>
-0.378743

>  <RMSD>
11.095

$$$$
2fcx_lig
 OpenBabel11021811433D
libRbt.so/2013.1/901 2013/11/27
 22 23  0  0  0  0  0  0  0  0999 V2000
   29.7119    5.9594    6.2418 N   0  0  0  0  0  0  0  0  0  0  0  0
   29.1635    1.0951    6.5775 N   0  0  0  0  0  0  0  0  0  0  0  0
   23.8756    1.0398    7.3627 N   0  0  0  0  0  0  0  0  0  0  0  0
   27.3207    4.0007   10.0187 O   0  0  0  0  0  0  0  0  0  0  0  0
   28.4214    3.8221    9.1231 C   0  0  2  0  0  0  0  0  0  0  0  0
   28.1932   -0.7014   11.2308 N   0  0  0  0  0  0  0  0  0  0  0  0
   28.7981    6.1871    8.9702 O   0  0  0  0  0  0  0  0  0  0  0  0
   28.5279    5.0230    8.1802 C   0  0  1  0  0  0  0  0  0  0  0  0
   28.3495    1.3924    9.2732 O   0  0  0  0  0  0  0  0  0  0  0  0
   29.6569    4.8185    7.1675 C   0  0  1  0  0  0  0  0  0  0  0  0
   26.0598    1.1831    8.8202 O   0  0  0  0  0  0  0  0  0  0  0  0
   29.4349    3.5313    6.3661 C   0  0  0  0  0  0  0  0  0  0  0  0
   26.5210   -1.9060    6.8386 O   0  0  0  0  0  0  0  0  0  0  0  0
   29.3791    2.3407    7.3273 C   0  0  1  0  0  0  0  0  0  0  0  0
   27.3447   -2.7541    9.4140 O   0  0  0  0  0  0  0  0  0  0  0  0
   28.2612    2.5005    8.3619 C   0  0  2  0  0  0  0  0  0  0  0  0
   27.0798    0.9945    9.8184 C   0  0  1  0  0  0  0  0  0  0  0  0
   26.2339    0.3706    7.6418 C   0  0  2  0  0  0  0  0  0  0  0  0
   25.0896    0.6081    6.6540 C   0  0  0  0  0  0  0  0  0  0  0  0
   26.2580   -1.1171    8.0031 C   0  0  2  0  0  0  0  0  0  0  0  0
   27.3621   -1.3782    9.0290 C   0  0  1  0  0  0  0  0  0  0  0  0
   27.1273   -0.4779   10.2448 C   0  0  1  0  0  0  0  0  0  0  0  0
  5  4  1  1  0  0  0
  5  8  1  0  0  0  0
  5 16  1  0  0  0  0
  8  7  1  1  0  0  0
  8 10  1  0  0  0  0
 10  1  1  6  0  0  0
 10 12  1  0  0  0  0
 11 18  1  0  0  0  0
 12 14  1  0  0  0  0
 14  2  1  6  0  0  0
 14 16  1  0  0  0  0
 16  9  1  1  0  0  0
 17  9  1  6  0  0  0
 17 11  1  0  0  0  0
 17 22  1  0  0  0  0
 18 19  1  6  0  0  0
 18 20  1  0  0  0  0
 19  3  1  0  0  0  0
 20 13  1  6  0  0  0
 20 21  1  0  0  0  0
 21 15  1  1  0  0  0
 21 22  1  0  0  0  0
 22  6  1  1  0  0  0
M  END
>  <CHROM.1>
90.36365147,34.44844902,-26.89906453,27.62865762,1.64774086,8.31936298,0.73190430
-1.04404456,-0.90781154

>  <Name>
2fcx_lig

>  <RI>
2.51704e+07

>  <Rbt.Current_Directory>
/home/itssahil/PROJECTS/Mol_Feturizer/New_Systems/rnas/2fcx

>  <Rbt.Executable>
rbdock ($Id: //depot/dev/client3/rdock/2013.1/src/exe/rbdock.cxx#4 $)

>  <Rbt.Library>
libRbt.so (2013.1, Build901 2013/11/27)

>  <Rbt.Parameter_File>
/export/apps/rDock/src/rDock_2013.1_src/data/scripts/dock_solv.prm

>  <Rbt.Receptor>
prm/blind_docking_80.prm

>  <SCORE>
-3.91162

>  <SCORE.INTER>
-7.86481

>  <SCORE.INTER.CONST>
1

>  <SCORE.INTER.POLAR>
-1.7321

>  <SCORE.INTER.ROT>
3

>  <SCORE.INTER.SOLV>
19.6407

>  <SCORE.INTER.VDW>
-11.6164

>  <SCORE.INTER.norm>
-0.357491

>  <SCORE.INTRA>
3.85587

>  <SCORE.INTRA.DIHEDRAL>
4.60712

>  <SCORE.INTRA.DIHEDRAL.0>
4.88619

>  <SCORE.INTRA.POLAR>
0

>  <SCORE.INTRA.POLAR.0>
0

>  <SCORE.INTRA.REPUL>
0

>  <SCORE.INTRA.REPUL.0>
0

>  <SCORE.INTRA.SOLV>
2.15106

>  <SCORE.INTRA.SOLV.lig_0>
-73.8187

>  <SCORE.INTRA.VDW>
0.476782

>  <SCORE.INTRA.VDW.0>
-1.32335

>  <SCORE.INTRA.norm>
0.175267

>  <SCORE.RESTR>
0.0973085

>  <SCORE.RESTR.CAVITY>
0.0973085

>  <SCORE.RESTR.norm>
0.00442311

>  <SCORE.SYSTEM>
0

>  <SCORE.SYSTEM.CONST>
0

>  <SCORE.SYSTEM.DIHEDRAL>
0

>  <SCORE.SYSTEM.SOLV>
0

>  <SCORE.SYSTEM.norm>
0

>  <SCORE.heavy>
22

>  <SCORE.norm>
-0.177801

>  <RMSD>
11.103

$$$$
2fcx_lig
 OpenBabel11021811433D
libRbt.so/2013.1/901 2013/11/27
 22 23  0  0  0  0  0  0  0  0999 V2000
   28.5364    7.5937    7.4864 N   0  0  0  0  0  0  0  0  0  0  0  0
   27.4908    3.2291    5.5035 N   0  0  0  0  0  0  0  0  0  0  0  0
   23.5343    2.9441    6.4181 N   0  0  0  0  0  0  0  0  0  0  0  0
   27.2768    3.8307   10.3276 O   0  0  0  0  0  0  0  0  0  0  0  0
   27.9899    4.2050    9.1457 C   0  0  2  0  0  0  0  0  0  0  0  0
   28.2161   -0.4609    9.3504 N   0  0  0  0  0  0  0  0  0  0  0  0
   28.6046    6.3282   10.0797 O   0  0  0  0  0  0  0  0  0  0  0  0
   27.9395    5.7238    8.9641 C   0  0  1  0  0  0  0  0  0  0  0  0
   27.6509    2.0459    8.0710 O   0  0  0  0  0  0  0  0  0  0  0  0
   28.6374    6.1380    7.6666 C   0  0  1  0  0  0  0  0  0  0  0  0
   25.3474    1.6528    8.2477 O   0  0  0  0  0  0  0  0  0  0  0  0
   27.9973    5.4371    6.4635 C   0  0  0  0  0  0  0  0  0  0  0  0
   25.3361   -0.7769    5.4589 O   0  0  0  0  0  0  0  0  0  0  0  0
   28.1025    3.9206    6.6471 C   0  0  1  0  0  0  0  0  0  0  0  0
   26.9573   -2.1066    7.3651 O   0  0  0  0  0  0  0  0  0  0  0  0
   27.4162    3.4576    7.9357 C   0  0  2  0  0  0  0  0  0  0  0  0
   26.6340    1.3644    8.8255 C   0  0  1  0  0  0  0  0  0  0  0  0
   25.1918    1.1797    6.8947 C   0  0  2  0  0  0  0  0  0  0  0  0
   23.7878    1.4963    6.3750 C   0  0  0  0  0  0  0  0  0  0  0  0
   25.4041   -0.3347    6.8181 C   0  0  2  0  0  0  0  0  0  0  0  0
   26.7830   -0.6885    7.3778 C   0  0  1  0  0  0  0  0  0  0  0  0
   26.8879   -0.1479    8.8063 C   0  0  1  0  0  0  0  0  0  0  0  0
  5  4  1  1  0  0  0
  5  8  1  0  0  0  0
  5 16  1  0  0  0  0
  8  7  1  1  0  0  0
  8 10  1  0  0  0  0
 10  1  1  6  0  0  0
 10 12  1  0  0  0  0
 11 18  1  0  0  0  0
 12 14  1  0  0  0  0
 14  2  1  6  0  0  0
 14 16  1  0  0  0  0
 16  9  1  1  0  0  0
 17  9  1  6  0  0  0
 17 11  1  0  0  0  0
 17 22  1  0  0  0  0
 18 19  1  1  0  0  0
 18 20  1  0  0  0  0
 19  3  1  0  0  0  0
 20 13  1  6  0  0  0
 20 21  1  0  0  0  0
 21 15  1  1  0  0  0
 21 22  1  0  0  0  0
 22  6  1  6  0  0  0
M  END
>  <CHROM.1>
86.29722828,53.87466259,58.73410380,26.88857215,2.52140786,7.75212049,1.01055424
-0.85978887,-0.25006168

>  <Name>
2fcx_lig

>  <RI>
2.63278e+07

>  <Rbt.Current_Directory>
/home/itssahil/PROJECTS/Mol_Feturizer/New_Systems/rnas/2fcx

>  <Rbt.Executable>
rbdock ($Id: //depot/dev/client3/rdock/2013.1/src/exe/rbdock.cxx#4 $)

>  <Rbt.Library>
libRbt.so (2013.1, Build901 2013/11/27)

>  <Rbt.Parameter_File>
/export/apps/rDock/src/rDock_2013.1_src/data/scripts/dock_solv.prm

>  <Rbt.Receptor>
prm/blind_docking_40.prm

>  <SCORE>
-15.0167

>  <SCORE.INTER>
-14.4049

>  <SCORE.INTER.CONST>
1

>  <SCORE.INTER.POLAR>
-2.12618

>  <SCORE.INTER.ROT>
3

>  <SCORE.INTER.SOLV>
13.9081

>  <SCORE.INTER.VDW>
-12.752

>  <SCORE.INTER.norm>
-0.654768

>  <SCORE.INTRA>
-0.852582

>  <SCORE.INTRA.DIHEDRAL>
-1.78147

>  <SCORE.INTRA.DIHEDRAL.0>
4.88619

>  <SCORE.INTRA.POLAR>
0

>  <SCORE.INTRA.POLAR.0>
0

>  <SCORE.INTRA.REPUL>
0

>  <SCORE.INTRA.REPUL.0>
0

>  <SCORE.INTRA.SOLV>
0.87117

>  <SCORE.INTRA.SOLV.lig_0>
-73.8187

>  <SCORE.INTRA.VDW>
-0.397433

>  <SCORE.INTRA.VDW.0>
-1.32335

>  <SCORE.INTRA.norm>
-0.0387537

>  <SCORE.RESTR>
0.240753

>  <SCORE.RESTR.CAVITY>
0.240753

>  <SCORE.RESTR.norm>
0.0109433

>  <SCORE.SYSTEM>
0

>  <SCORE.SYSTEM.CONST>
0

>  <SCORE.SYSTEM.DIHEDRAL>
0

>  <SCORE.SYSTEM.SOLV>
0

>  <SCORE.SYSTEM.norm>
0

>  <SCORE.heavy>
22

>  <SCORE.norm>
-0.682578

>  <RMSD>
11.105

$$$$
2fcx_lig
 OpenBabel11021811433D
libRbt.so/2013.1/901 2013/11/27
 22 23  0  0  0  0  0  0  0  0999 V2000
   27.4990    6.7284    6.2736 N   0  0  0  0  0  0  0  0  0  0  0  0
   29.0276    4.2382   10.2153 N   0  0  0  0  0  0  0  0  0  0  0  0
   27.5497    0.2568    4.7085 N   0  0  0  0  0  0  0  0  0  0  0  0
   29.1278    2.1500    5.8211 O   0  0  0  0  0  0  0  0  0  0  0  0
   28.3903    3.0419    6.6615 C   0  0  2  0  0  0  0  0  0  0  0  0
   28.0172    0.7277   11.1684 N   0  0  0  0  0  0  0  0  0  0  0  0
   27.5416    4.2608    4.7768 O   0  0  0  0  0  0  0  0  0  0  0  0
   28.2789    4.4152    5.9952 C   0  0  1  0  0  0  0  0  0  0  0  0
   28.9702    1.8456    8.7020 O   0  0  0  0  0  0  0  0  0  0  0  0
   27.5534    5.4043    6.9105 C   0  0  1  0  0  0  0  0  0  0  0  0
   27.2236    0.8183    7.5248 O   0  0  0  0  0  0  0  0  0  0  0  0
   28.2771    5.5233    8.2560 C   0  0  0  0  0  0  0  0  0  0  0  0
   28.8202   -2.5159    7.6508 O   0  0  0  0  0  0  0  0  0  0  0  0
   28.3338    4.1460    8.9229 C   0  0  1  0  0  0  0  0  0  0  0  0
   28.3236   -2.0190   10.3961 O   0  0  0  0  0  0  0  0  0  0  0  0
   29.0530    3.1199    8.0423 C   0  0  2  0  0  0  0  0  0  0  0  0
   27.6287    1.3381    8.8047 C   0  0  1  0  0  0  0  0  0  0  0  0
   28.0135   -0.2978    7.0675 C   0  0  2  0  0  0  0  0  0  0  0  0
   27.4921   -0.8071    5.7220 C   0  0  0  0  0  0  0  0  0  0  0  0
   27.9616   -1.4516    8.0727 C   0  0  2  0  0  0  0  0  0  0  0  0
   28.4311   -0.9600    9.4429 C   0  0  1  0  0  0  0  0  0  0  0  0
   27.5639    0.2298    9.8627 C   0  0  1  0  0  0  0  0  0  0  0  0
  5  4  1  6  0  0  0
  5  8  1  0  0  0  0
  5 16  1  0  0  0  0
  8  7  1  6  0  0  0
  8 10  1  0  0  0  0
 10  1  1  6  0  0  0
 10 12  1  0  0  0  0
 11 18  1  0  0  0  0
 12 14  1  0  0  0  0
 14  2  1  1  0  0  0
 14 16  1  0  0  0  0
 16  9  1  1  0  0  0
 17  9  1  6  0  0  0
 17 11  1  0  0  0  0
 17 22  1  0  0  0  0
 18 19  1  6  0  0  0
 18 20  1  0  0  0  0
 19  3  1  0  0  0  0
 20 13  1  6  0  0  0
 20 21  1  0  0  0  0
 21 15  1  1  0  0  0
 21 22  1  0  0  0  0
 22  6  1  1  0  0  0
M  END
>  <CHROM.1>
-54.99896978,76.50835025,59.65242478,28.14798039,1.78347583,7.75466973,1.73460903
-1.46130947,-0.12752399

>  <Name>
2fcx_lig

>  <RI>
224

>  <Rbt.Current_Directory>
/home/itssahil/PROJECTS/Mol_Feturizer/New_Systems/rnas/2fcx

>  <Rbt.Executable>
rbdock ($Id: //depot/dev/client3/rdock/2013.1/src/exe/rbdock.cxx#4 $)

>  <Rbt.Library>
libRbt.so (2013.1, Build901 2013/11/27)

>  <Rbt.Parameter_File>
/export/apps/rDock/src/rDock_2013.1_src/data/scripts/dock_solv.prm

>  <Rbt.Receptor>
prm/blind_docking_60.prm

>  <SCORE>
-8.47285

>  <SCORE.INTER>
-9.5557

>  <SCORE.INTER.CONST>
1

>  <SCORE.INTER.POLAR>
-2.51149

>  <SCORE.INTER.ROT>
3

>  <SCORE.INTER.SOLV>
16.3086

>  <SCORE.INTER.VDW>
-9.03504

>  <SCORE.INTER.norm>
-0.43435

>  <SCORE.INTRA>
1.05708

>  <SCORE.INTRA.DIHEDRAL>
-3.49143

>  <SCORE.INTRA.DIHEDRAL.0>
4.88619

>  <SCORE.INTRA.POLAR>
0

>  <SCORE.INTRA.POLAR.0>
0

>  <SCORE.INTRA.REPUL>
0

>  <SCORE.INTRA.REPUL.0>
0

>  <SCORE.INTRA.SOLV>
3.00692

>  <SCORE.INTRA.SOLV.lig_0>
-73.8187

>  <SCORE.INTRA.VDW>
1.29933

>  <SCORE.INTRA.VDW.0>
-1.32335

>  <SCORE.INTRA.norm>
0.048049

>  <SCORE.RESTR>
0.0257758

>  <SCORE.RESTR.CAVITY>
0.0257758

>  <SCORE.RESTR.norm>
0.00117163

>  <SCORE.SYSTEM>
0

>  <SCORE.SYSTEM.CONST>
0

>  <SCORE.SYSTEM.DIHEDRAL>
0

>  <SCORE.SYSTEM.SOLV>
0

>  <SCORE.SYSTEM.norm>
0

>  <SCORE.heavy>
22

>  <SCORE.norm>
-0.38513

>  <RMSD>
11.136

$$$$
2fcx_lig
 OpenBabel11021811433D
libRbt.so/2013.1/901 2013/11/27
 22 23  0  0  0  0  0  0  0  0999 V2000
   30.0949   -3.0092    8.5104 N   0  0  0  0  0  0  0  0  0  0  0  0
   27.7186    0.3947   11.1260 N   0  0  0  0  0  0  0  0  0  0  0  0
   24.8606    3.5865    6.5388 N   0  0  0  0  0  0  0  0  0  0  0  0
   29.7310    1.5669    6.8533 O   0  0  0  0  0  0  0  0  0  0  0  0
   29.8935    0.7673    8.0279 C   0  0  2  0  0  0  0  0  0  0  0  0
   29.5994    5.1506    9.8663 N   0  0  0  0  0  0  0  0  0  0  0  0
   31.1302   -0.9037    6.8293 O   0  0  0  0  0  0  0  0  0  0  0  0
   29.9689   -0.7129    7.6460 C   0  0  1  0  0  0  0  0  0  0  0  0
   28.8350    2.4106    9.4806 O   0  0  0  0  0  0  0  0  0  0  0  0
   30.0721   -1.5905    8.8955 C   0  0  1  0  0  0  0  0  0  0  0  0
   27.4073    3.0229    7.7260 O   0  0  0  0  0  0  0  0  0  0  0  0
   28.8818   -1.3419    9.8281 C   0  0  0  0  0  0  0  0  0  0  0  0
   24.8180    4.3415   10.0148 O   0  0  0  0  0  0  0  0  0  0  0  0
   28.8563    0.1347   10.2326 C   0  0  1  0  0  0  0  0  0  0  0  0
   26.9743    6.1104   10.5160 O   0  0  0  0  0  0  0  0  0  0  0  0
   28.7529    1.0542    9.0121 C   0  0  2  0  0  0  0  0  0  0  0  0
   28.5942    3.3884    8.4540 C   0  0  1  0  0  0  0  0  0  0  0  0
   26.2074    3.0141    8.5254 C   0  0  2  0  0  0  0  0  0  0  0  0
   24.9942    2.6515    7.6660 C   0  0  0  0  0  0  0  0  0  0  0  0
   25.9598    4.3883    9.1535 C   0  0  2  0  0  0  0  0  0  0  0  0
   27.1782    4.8014    9.9808 C   0  0  1  0  0  0  0  0  0  0  0  0
   28.4160    4.7770    9.0800 C   0  0  1  0  0  0  0  0  0  0  0  0
  5  4  1  6  0  0  0
  5  8  1  0  0  0  0
  5 16  1  0  0  0  0
  8  7  1  6  0  0  0
  8 10  1  0  0  0  0
 10  1  1  6  0  0  0
 10 12  1  0  0  0  0
 11 18  1  0  0  0  0
 12 14  1  0  0  0  0
 14  2  1  1  0  0  0
 14 16  1  0  0  0  0
 16  9  1  1  0  0  0
 17  9  1  1  0  0  0
 17 11  1  0  0  0  0
 17 22  1  0  0  0  0
 18 19  1  6  0  0  0
 18 20  1  0  0  0  0
 19  3  1  0  0  0  0
 20 13  1  1  0  0  0
 20 21  1  0  0  0  0
 21 15  1  6  0  0  0
 21 22  1  0  0  0  0
 22  6  1  1  0  0  0
M  END
>  <CHROM.1>
66.48951375,47.81573047,-57.10012545,28.12613446,2.02909890,8.80433013,0.97070421
0.37047299,-2.75549692

>  <Name>
2fcx_lig

>  <RI>
2.63278e+07

>  <Rbt.Current_Directory>
/home/itssahil/PROJECTS/Mol_Feturizer/New_Systems/rnas/2fcx

>  <Rbt.Executable>
rbdock ($Id: //depot/dev/client3/rdock/2013.1/src/exe/rbdock.cxx#4 $)

>  <Rbt.Library>
libRbt.so (2013.1, Build901 2013/11/27)

>  <Rbt.Parameter_File>
/export/apps/rDock/src/rDock_2013.1_src/data/scripts/dock_solv.prm

>  <Rbt.Receptor>
prm/blind_docking_40.prm

>  <SCORE>
-13.1365

>  <SCORE.INTER>
-12.5336

>  <SCORE.INTER.CONST>
1

>  <SCORE.INTER.POLAR>
-2.81174

>  <SCORE.INTER.ROT>
3

>  <SCORE.INTER.SOLV>
16.2083

>  <SCORE.INTER.VDW>
-9.98601

>  <SCORE.INTER.norm>
-0.569708

>  <SCORE.INTRA>
-0.660473

>  <SCORE.INTRA.DIHEDRAL>
-3.9351

>  <SCORE.INTRA.DIHEDRAL.0>
4.88619

>  <SCORE.INTRA.POLAR>
0

>  <SCORE.INTRA.POLAR.0>
0

>  <SCORE.INTRA.REPUL>
0

>  <SCORE.INTRA.REPUL.0>
0

>  <SCORE.INTRA.SOLV>
0.477235

>  <SCORE.INTRA.SOLV.lig_0>
-73.8187

>  <SCORE.INTRA.VDW>
1.06846

>  <SCORE.INTRA.VDW.0>
-1.32335

>  <SCORE.INTRA.norm>
-0.0300215

>  <SCORE.RESTR>
0.0575252

>  <SCORE.RESTR.CAVITY>
0.0575252

>  <SCORE.RESTR.norm>
0.00261478

>  <SCORE.SYSTEM>
0

>  <SCORE.SYSTEM.CONST>
0

>  <SCORE.SYSTEM.DIHEDRAL>
0

>  <SCORE.SYSTEM.SOLV>
0

>  <SCORE.SYSTEM.norm>
0

>  <SCORE.heavy>
22

>  <SCORE.norm>
-0.597115

>  <RMSD>
11.162

$$$$
2fcx_lig
 OpenBabel11021811433D
libRbt.so/2013.1/901 2013/11/27
 22 23  0  0  0  0  0  0  0  0999 V2000
   28.7635    6.9650    6.4639 N   0  0  0  0  0  0  0  0  0  0  0  0
   27.7584    2.2345    5.6350 N   0  0  0  0  0  0  0  0  0  0  0  0
   24.0089    2.6838    6.5769 N   0  0  0  0  0  0  0  0  0  0  0  0
   27.6951    3.9822   10.1761 O   0  0  0  0  0  0  0  0  0  0  0  0
   28.3578    4.0704    8.9118 C   0  0  2  0  0  0  0  0  0  0  0  0
   28.4513   -0.7081    9.8932 N   0  0  0  0  0  0  0  0  0  0  0  0
   28.9517    6.3659    9.2811 O   0  0  0  0  0  0  0  0  0  0  0  0
   28.2639    5.4992    8.3713 C   0  0  1  0  0  0  0  0  0  0  0  0
   28.0355    1.7105    8.4038 O   0  0  0  0  0  0  0  0  0  0  0  0
   28.9064    5.5979    6.9858 C   0  0  1  0  0  0  0  0  0  0  0  0
   25.7125    1.4557    8.5779 O   0  0  0  0  0  0  0  0  0  0  0  0
   28.2430    4.6169    6.0133 C   0  0  0  0  0  0  0  0  0  0  0  0
   25.5995   -1.1928    5.9982 O   0  0  0  0  0  0  0  0  0  0  0  0
   28.3917    3.1916    6.5531 C   0  0  1  0  0  0  0  0  0  0  0  0
   27.1267   -2.4438    8.0313 O   0  0  0  0  0  0  0  0  0  0  0  0
   27.7617    3.0436    7.9412 C   0  0  2  0  0  0  0  0  0  0  0  0
   26.9755    1.1485    9.1965 C   0  0  1  0  0  0  0  0  0  0  0  0
   25.5459    0.8809    7.2661 C   0  0  2  0  0  0  0  0  0  0  0  0
   24.1664    1.2271    6.7012 C   0  0  0  0  0  0  0  0  0  0  0  0
   25.6770   -0.6437    7.3174 C   0  0  2  0  0  0  0  0  0  0  0  0
   27.0288   -1.0223    7.9248 C   0  0  1  0  0  0  0  0  0  0  0  0
   27.1477   -0.3715    9.3054 C   0  0  1  0  0  0  0  0  0  0  0  0
  5  4  1  1  0  0  0
  5  8  1  0  0  0  0
  5 16  1  0  0  0  0
  8  7  1  1  0  0  0
  8 10  1  0  0  0  0
 10  1  1  6  0  0  0
 10 12  1  0  0  0  0
 11 18  1  0  0  0  0
 12 14  1  0  0  0  0
 14  2  1  6  0  0  0
 14 16  1  0  0  0  0
 16  9  1  1  0  0  0
 17  9  1  6  0  0  0
 17 11  1  0  0  0  0
 17 22  1  0  0  0  0
 18 19  1  1  0  0  0
 18 20  1  0  0  0  0
 19  3  1  0  0  0  0
 20 13  1  6  0  0  0
 20 21  1  0  0  0  0
 21 15  1  1  0  0  0
 21 22  1  0  0  0  0
 22  6  1  6  0  0  0
M  END
>  <CHROM.1>
94.14834427,42.99969702,60.73474546,27.20045309,2.17578311,7.81435849,1.01854888
-0.86853595,-0.43039006

>  <Name>
2fcx_lig

>  <RI>
2.51704e+07

>  <Rbt.Current_Directory>
/home/itssahil/PROJECTS/Mol_Feturizer/New_Systems/rnas/2fcx

>  <Rbt.Executable>
rbdock ($Id: //depot/dev/client3/rdock/2013.1/src/exe/rbdock.cxx#4 $)

>  <Rbt.Library>
libRbt.so (2013.1, Build901 2013/11/27)

>  <Rbt.Parameter_File>
/export/apps/rDock/src/rDock_2013.1_src/data/scripts/dock_solv.prm

>  <Rbt.Receptor>
prm/blind_docking_80.prm

>  <SCORE>
-10.2499

>  <SCORE.INTER>
-11.7342

>  <SCORE.INTER.CONST>
1

>  <SCORE.INTER.POLAR>
-1.54862

>  <SCORE.INTER.ROT>
3

>  <SCORE.INTER.SOLV>
11.7339

>  <SCORE.INTER.VDW>
-12.172

>  <SCORE.INTER.norm>
-0.533372

>  <SCORE.INTRA>
1.33378

>  <SCORE.INTRA.DIHEDRAL>
0.833251

>  <SCORE.INTRA.DIHEDRAL.0>
4.88619

>  <SCORE.INTRA.POLAR>
0

>  <SCORE.INTRA.POLAR.0>
0

>  <SCORE.INTRA.REPUL>
0

>  <SCORE.INTRA.REPUL.0>
0

>  <SCORE.INTRA.SOLV>
2.43193

>  <SCORE.INTRA.SOLV.lig_0>
-73.8187

>  <SCORE.INTRA.VDW>
-0.298812

>  <SCORE.INTRA.VDW.0>
-1.32335

>  <SCORE.INTRA.norm>
0.0606262

>  <SCORE.RESTR>
0.150526

>  <SCORE.RESTR.CAVITY>
0.150526

>  <SCORE.RESTR.norm>
0.0068421

>  <SCORE.SYSTEM>
0

>  <SCORE.SYSTEM.CONST>
0

>  <SCORE.SYSTEM.DIHEDRAL>
0

>  <SCORE.SYSTEM.SOLV>
0

>  <SCORE.SYSTEM.norm>
0

>  <SCORE.heavy>
22

>  <SCORE.norm>
-0.465904

>  <RMSD>
11.182

$$$$
2fcx_lig
 OpenBabel11021811433D
libRbt.so/2013.1/901 2013/11/27
 22 23  0  0  0  0  0  0  0  0999 V2000
   28.7506    6.9687    6.4656 N   0  0  0  0  0  0  0  0  0  0  0  0
   27.7502    2.2369    5.6385 N   0  0  0  0  0  0  0  0  0  0  0  0
   24.0228    2.6917    6.5518 N   0  0  0  0  0  0  0  0  0  0  0  0
   27.6969    3.9836   10.1801 O   0  0  0  0  0  0  0  0  0  0  0  0
   28.3560    4.0731    8.9140 C   0  0  2  0  0  0  0  0  0  0  0  0
   28.4471   -0.7161    9.8803 N   0  0  0  0  0  0  0  0  0  0  0  0
   28.9475    6.3693    9.2821 O   0  0  0  0  0  0  0  0  0  0  0  0
   28.2584    5.5018    8.3740 C   0  0  1  0  0  0  0  0  0  0  0  0
   28.0358    1.7128    8.4064 O   0  0  0  0  0  0  0  0  0  0  0  0
   28.8970    5.6018    6.9868 C   0  0  1  0  0  0  0  0  0  0  0  0
   25.7122    1.4522    8.5641 O   0  0  0  0  0  0  0  0  0  0  0  0
   28.2323    4.6199    6.0159 C   0  0  0  0  0  0  0  0  0  0  0  0
   25.6203   -1.1772    5.9643 O   0  0  0  0  0  0  0  0  0  0  0  0
   28.3846    3.1948    6.5550 C   0  0  1  0  0  0  0  0  0  0  0  0
   27.1373   -2.4404    7.9973 O   0  0  0  0  0  0  0  0  0  0  0  0
   27.7587    3.0455    7.9448 C   0  0  2  0  0  0  0  0  0  0  0  0
   26.9720    1.1429    9.1883 C   0  0  1  0  0  0  0  0  0  0  0  0
   25.5548    0.8869    7.2471 C   0  0  2  0  0  0  0  0  0  0  0  0
   24.1782    1.2347    6.6763 C   0  0  0  0  0  0  0  0  0  0  0  0
   25.6886   -0.6378    7.2879 C   0  0  2  0  0  0  0  0  0  0  0  0
   27.0374   -1.0183    7.9008 C   0  0  1  0  0  0  0  0  0  0  0  0
   27.1465   -0.3775    9.2870 C   0  0  1  0  0  0  0  0  0  0  0  0
  5  4  1  1  0  0  0
  5  8  1  0  0  0  0
  5 16  1  0  0  0  0
  8  7  1  1  0  0  0
  8 10  1  0  0  0  0
 10  1  1  6  0  0  0
 10 12  1  0  0  0  0
 11 18  1  0  0  0  0
 12 14  1  0  0  0  0
 14  2  1  6  0  0  0
 14 16  1  0  0  0  0
 16  9  1  1  0  0  0
 17  9  1  6  0  0  0
 17 11  1  0  0  0  0
 17 22  1  0  0  0  0
 18 19  1  1  0  0  0
 18 20  1  0  0  0  0
 19  3  1  0  0  0  0
 20 13  1  6  0  0  0
 20 21  1  0  0  0  0
 21 15  1  1  0  0  0
 21 22  1  0  0  0  0
 22  6  1  6  0  0  0
M  END
>  <CHROM.1>
94.86085145,42.62440409,61.18784755,27.20136710,2.17848808,7.80437119,1.01949241
-0.87433348,-0.42672054

>  <Name>
2fcx_lig

>  <RI>
2.51704e+07

>  <Rbt.Current_Directory>
/home/itssahil/PROJECTS/Mol_Feturizer/New_Systems/rnas/2fcx

>  <Rbt.Executable>
rbdock ($Id: //depot/dev/client3/rdock/2013.1/src/exe/rbdock.cxx#4 $)

>  <Rbt.Library>
libRbt.so (2013.1, Build901 2013/11/27)

>  <Rbt.Parameter_File>
/export/apps/rDock/src/rDock_2013.1_src/data/scripts/dock_solv.prm

>  <Rbt.Receptor>
prm/blind_docking_80.prm

>  <SCORE>
-10.3272

>  <SCORE.INTER>
-11.9997

>  <SCORE.INTER.CONST>
1

>  <SCORE.INTER.POLAR>
-1.55314

>  <SCORE.INTER.ROT>
3

>  <SCORE.INTER.SOLV>
11.5997

>  <SCORE.INTER.VDW>
-12.2892

>  <SCORE.INTER.norm>
-0.545441

>  <SCORE.INTRA>
1.51403

>  <SCORE.INTRA.DIHEDRAL>
1.0221

>  <SCORE.INTRA.DIHEDRAL.0>
4.88619

>  <SCORE.INTRA.POLAR>
0

>  <SCORE.INTRA.POLAR.0>
0

>  <SCORE.INTRA.REPUL>
0

>  <SCORE.INTRA.REPUL.0>
0

>  <SCORE.INTRA.SOLV>
2.58905

>  <SCORE.INTRA.SOLV.lig_0>
-73.8187

>  <SCORE.INTRA.VDW>
-0.29154

>  <SCORE.INTRA.VDW.0>
-1.32335

>  <SCORE.INTRA.norm>
0.0688196

>  <SCORE.RESTR>
0.158435

>  <SCORE.RESTR.CAVITY>
0.158435

>  <SCORE.RESTR.norm>
0.00720159

>  <SCORE.SYSTEM>
0

>  <SCORE.SYSTEM.CONST>
0

>  <SCORE.SYSTEM.DIHEDRAL>
0

>  <SCORE.SYSTEM.SOLV>
0

>  <SCORE.SYSTEM.norm>
0

>  <SCORE.heavy>
22

>  <SCORE.norm>
-0.469419

>  <RMSD>
11.188

$$$$
2fcx_lig
 OpenBabel11021811433D
libRbt.so/2013.1/901 2013/11/27
 22 23  0  0  0  0  0  0  0  0999 V2000
   28.8234    6.9320    6.4812 N   0  0  0  0  0  0  0  0  0  0  0  0
   27.8085    2.2050    5.6444 N   0  0  0  0  0  0  0  0  0  0  0  0
   24.0508    2.6619    6.5496 N   0  0  0  0  0  0  0  0  0  0  0  0
   27.7089    3.9546   10.1841 O   0  0  0  0  0  0  0  0  0  0  0  0
   28.3838    4.0399    8.9261 C   0  0  2  0  0  0  0  0  0  0  0  0
   28.4524   -0.7356    9.9142 N   0  0  0  0  0  0  0  0  0  0  0  0
   28.9828    6.3332    9.3003 O   0  0  0  0  0  0  0  0  0  0  0  0
   28.3003    5.4688    8.3843 C   0  0  1  0  0  0  0  0  0  0  0  0
   28.0575    1.6810    8.4159 O   0  0  0  0  0  0  0  0  0  0  0  0
   28.9563    5.5646    7.0049 C   0  0  1  0  0  0  0  0  0  0  0  0
   25.7322    1.4331    8.5686 O   0  0  0  0  0  0  0  0  0  0  0  0
   28.2984    4.5857    6.0265 C   0  0  0  0  0  0  0  0  0  0  0  0
   25.6359   -1.2206    5.9937 O   0  0  0  0  0  0  0  0  0  0  0  0
   28.4367    3.1601    6.5681 C   0  0  1  0  0  0  0  0  0  0  0  0
   27.1403   -2.4715    8.0436 O   0  0  0  0  0  0  0  0  0  0  0  0
   27.7930    3.0149    7.9503 C   0  0  2  0  0  0  0  0  0  0  0  0
   26.9885    1.1237    9.1998 C   0  0  1  0  0  0  0  0  0  0  0  0
   25.5763    0.8560    7.2565 C   0  0  2  0  0  0  0  0  0  0  0  0
   24.2032    1.2049    6.6780 C   0  0  0  0  0  0  0  0  0  0  0  0
   25.7026   -0.6689    7.3123 C   0  0  2  0  0  0  0  0  0  0  0  0
   27.0475   -1.0500    7.9332 C   0  0  1  0  0  0  0  0  0  0  0  0
   27.1553   -0.3965    9.3135 C   0  0  1  0  0  0  0  0  0  0  0  0
  5  4  1  1  0  0  0
  5  8  1  0  0  0  0
  5 16  1  0  0  0  0
  8  7  1  1  0  0  0
  8 10  1  0  0  0  0
 10  1  1  6  0  0  0
 10 12  1  0  0  0  0
 11 18  1  0  0  0  0
 12 14  1  0  0  0  0
 14  2  1  6  0  0  0
 14 16  1  0  0  0  0
 16  9  1  1  0  0  0
 17  9  1  6  0  0  0
 17 11  1  0  0  0  0
 17 22  1  0  0  0  0
 18 19  1  1  0  0  0
 18 20  1  0  0  0  0
 19  3  1  0  0  0  0
 20 13  1  6  0  0  0
 20 21  1  0  0  0  0
 21 15  1  1  0  0  0
 21 22  1  0  0  0  0
 22  6  1  6  0  0  0
M  END
>  <CHROM.1>
94.09174779,43.12448092,60.71395246,27.23048715,2.14782268,7.81995013,1.00737682
-0.87557097,-0.43989816

>  <Name>
2fcx_lig

>  <RI>
224

>  <Rbt.Current_Directory>
/home/itssahil/PROJECTS/Mol_Feturizer/New_Systems/rnas/2fcx

>  <Rbt.Executable>
rbdock ($Id: //depot/dev/client3/rdock/2013.1/src/exe/rbdock.cxx#4 $)

>  <Rbt.Library>
libRbt.so (2013.1, Build901 2013/11/27)

>  <Rbt.Parameter_File>
/export/apps/rDock/src/rDock_2013.1_src/data/scripts/dock_solv.prm

>  <Rbt.Receptor>
prm/blind_docking_100.prm

>  <SCORE>
-9.85961

>  <SCORE.INTER>
-11.2922

>  <SCORE.INTER.CONST>
1

>  <SCORE.INTER.POLAR>
-1.52248

>  <SCORE.INTER.ROT>
3

>  <SCORE.INTER.SOLV>
11.8527

>  <SCORE.INTER.VDW>
-12.0041

>  <SCORE.INTER.norm>
-0.51328

>  <SCORE.INTRA>
1.30666

>  <SCORE.INTRA.DIHEDRAL>
0.804511

>  <SCORE.INTRA.DIHEDRAL.0>
4.88619

>  <SCORE.INTRA.POLAR>
0

>  <SCORE.INTRA.POLAR.0>
0

>  <SCORE.INTRA.REPUL>
0

>  <SCORE.INTRA.REPUL.0>
0

>  <SCORE.INTRA.SOLV>
2.41526

>  <SCORE.INTRA.SOLV.lig_0>
-73.8187

>  <SCORE.INTRA.VDW>
-0.303226

>  <SCORE.INTRA.VDW.0>
-1.32335

>  <SCORE.INTRA.norm>
0.0593936

>  <SCORE.RESTR>
0.125891

>  <SCORE.RESTR.CAVITY>
0.125891

>  <SCORE.RESTR.norm>
0.00572234

>  <SCORE.SYSTEM>
0

>  <SCORE.SYSTEM.CONST>
0

>  <SCORE.SYSTEM.DIHEDRAL>
0

>  <SCORE.SYSTEM.SOLV>
0

>  <SCORE.SYSTEM.norm>
0

>  <SCORE.heavy>
22

>  <SCORE.norm>
-0.448164

>  <RMSD>
11.193

$$$$
2fcx_lig
 OpenBabel11021811433D
libRbt.so/2013.1/901 2013/11/27
 22 23  0  0  0  0  0  0  0  0999 V2000
   26.3156    6.0715   11.0163 N   0  0  0  0  0  0  0  0  0  0  0  0
   24.9851    2.1156    8.4365 N   0  0  0  0  0  0  0  0  0  0  0  0
   27.7752   -0.1288   10.8371 N   0  0  0  0  0  0  0  0  0  0  0  0
   29.5922    3.6769    8.3054 O   0  0  0  0  0  0  0  0  0  0  0  0
   28.2281    4.1020    8.3709 C   0  0  2  0  0  0  0  0  0  0  0  0
   28.1886    1.0928    4.4930 N   0  0  0  0  0  0  0  0  0  0  0  0
   28.8127    6.0972    9.5690 O   0  0  0  0  0  0  0  0  0  0  0  0
   27.9970    4.9220    9.6423 C   0  0  1  0  0  0  0  0  0  0  0  0
   27.4246    2.2523    7.0055 O   0  0  0  0  0  0  0  0  0  0  0  0
   26.5263    5.3268    9.7662 C   0  0  1  0  0  0  0  0  0  0  0  0
   28.5211    0.5371    8.1664 O   0  0  0  0  0  0  0  0  0  0  0  0
   25.6244    4.0879    9.7613 C   0  0  0  0  0  0  0  0  0  0  0  0
   25.8427   -1.9212    7.4848 O   0  0  0  0  0  0  0  0  0  0  0  0
   25.8400    3.3109    8.4596 C   0  0  1  0  0  0  0  0  0  0  0  0
   26.8093   -1.3945    4.8736 O   0  0  0  0  0  0  0  0  0  0  0  0
   27.3010    2.8830    8.2912 C   0  0  2  0  0  0  0  0  0  0  0  0
   28.4895    1.2882    6.9388 C   0  0  1  0  0  0  0  0  0  0  0  0
   27.3293   -0.2361    8.4127 C   0  0  2  0  0  0  0  0  0  0  0  0
   27.4644   -1.0276    9.7154 C   0  0  0  0  0  0  0  0  0  0  0  0
   27.0747   -1.2250    7.2720 C   0  0  2  0  0  0  0  0  0  0  0  0
   26.9840   -0.4672    5.9464 C   0  0  1  0  0  0  0  0  0  0  0  0
   28.2697    0.3412    5.7527 C   0  0  1  0  0  0  0  0  0  0  0  0
  5  4  1  1  0  0  0
  5  8  1  0  0  0  0
  5 16  1  0  0  0  0
  8  7  1  6  0  0  0
  8 10  1  0  0  0  0
 10  1  1  1  0  0  0
 10 12  1  0  0  0  0
 11 18  1  0  0  0  0
 12 14  1  0  0  0  0
 14  2  1  1  0  0  0
 14 16  1  0  0  0  0
 16  9  1  6  0  0  0
 17  9  1  1  0  0  0
 17 11  1  0  0  0  0
 17 22  1  0  0  0  0
 18 19  1  1  0  0  0
 18 20  1  0  0  0  0
 19  3  1  0  0  0  0
 20 13  1  1  0  0  0
 20 21  1  0  0  0  0
 21 15  1  6  0  0  0
 21 22  1  0  0  0  0
 22  6  1  6  0  0  0
M  END
>  <CHROM.1>
86.70278057,40.14966425,55.61448049,27.35307441,1.87787206,8.10084414,1.51755728
1.09098686,0.52911090

>  <Name>
2fcx_lig

>  <RI>
224

>  <Rbt.Current_Directory>
/home/itssahil/PROJECTS/Mol_Feturizer/New_Systems/rnas/2fcx

>  <Rbt.Executable>
rbdock ($Id: //depot/dev/client3/rdock/2013.1/src/exe/rbdock.cxx#4 $)

>  <Rbt.Library>
libRbt.so (2013.1, Build901 2013/11/27)

>  <Rbt.Parameter_File>
/export/apps/rDock/src/rDock_2013.1_src/data/scripts/dock_solv.prm

>  <Rbt.Receptor>
prm/blind_docking_60.prm

>  <SCORE>
-11.7901

>  <SCORE.INTER>
-12.8015

>  <SCORE.INTER.CONST>
1

>  <SCORE.INTER.POLAR>
-2.14447

>  <SCORE.INTER.ROT>
3

>  <SCORE.INTER.SOLV>
16.0389

>  <SCORE.INTER.VDW>
-12.3324

>  <SCORE.INTER.norm>
-0.581885

>  <SCORE.INTRA>
0.549185

>  <SCORE.INTRA.DIHEDRAL>
-0.049893

>  <SCORE.INTRA.DIHEDRAL.0>
4.88619

>  <SCORE.INTRA.POLAR>
0

>  <SCORE.INTRA.POLAR.0>
0

>  <SCORE.INTRA.REPUL>
0

>  <SCORE.INTRA.REPUL.0>
0

>  <SCORE.INTRA.SOLV>
1.17351

>  <SCORE.INTRA.SOLV.lig_0>
-73.8187

>  <SCORE.INTRA.VDW>
-0.012625

>  <SCORE.INTRA.VDW.0>
-1.32335

>  <SCORE.INTRA.norm>
0.0249629

>  <SCORE.RESTR>
0.462139

>  <SCORE.RESTR.CAVITY>
0.462139

>  <SCORE.RESTR.norm>
0.0210063

>  <SCORE.SYSTEM>
0

>  <SCORE.SYSTEM.CONST>
0

>  <SCORE.SYSTEM.DIHEDRAL>
0

>  <SCORE.SYSTEM.SOLV>
0

>  <SCORE.SYSTEM.norm>
0

>  <SCORE.heavy>
22

>  <SCORE.norm>
-0.535916

>  <RMSD>
11.204

$$$$
2fcx_lig
 OpenBabel11021811433D
libRbt.so/2013.1/901 2013/11/27
 22 23  0  0  0  0  0  0  0  0999 V2000
   26.3994    6.1013   10.9816 N   0  0  0  0  0  0  0  0  0  0  0  0
   24.9612    2.1413    8.4666 N   0  0  0  0  0  0  0  0  0  0  0  0
   27.7509   -0.1343   10.8272 N   0  0  0  0  0  0  0  0  0  0  0  0
   29.5866    3.6345    8.2293 O   0  0  0  0  0  0  0  0  0  0  0  0
   28.2304    4.0798    8.3178 C   0  0  2  0  0  0  0  0  0  0  0  0
   28.0862    1.0631    4.4620 N   0  0  0  0  0  0  0  0  0  0  0  0
   28.8672    6.0774    9.4849 O   0  0  0  0  0  0  0  0  0  0  0  0
   28.0364    4.9148    9.5856 C   0  0  1  0  0  0  0  0  0  0  0  0
   27.3734    2.2294    6.9864 O   0  0  0  0  0  0  0  0  0  0  0  0
   26.5744    5.3421    9.7348 C   0  0  1  0  0  0  0  0  0  0  0  0
   28.4954    0.5186    8.1293 O   0  0  0  0  0  0  0  0  0  0  0  0
   25.6550    4.1163    9.7595 C   0  0  0  0  0  0  0  0  0  0  0  0
   25.8059   -1.9441    7.5107 O   0  0  0  0  0  0  0  0  0  0  0  0
   25.8335    3.3242    8.4613 C   0  0  1  0  0  0  0  0  0  0  0  0
   26.7175   -1.4243    4.8784 O   0  0  0  0  0  0  0  0  0  0  0  0
   27.2845    2.8737    8.2681 C   0  0  2  0  0  0  0  0  0  0  0  0
   28.4376    1.2661    6.9004 C   0  0  1  0  0  0  0  0  0  0  0  0
   27.3097   -0.2549    8.4026 C   0  0  2  0  0  0  0  0  0  0  0  0
   27.4726   -1.0424    9.7045 C   0  0  0  0  0  0  0  0  0  0  0  0
   27.0325   -1.2475    7.2703 C   0  0  2  0  0  0  0  0  0  0  0  0
   26.9136   -0.4936    5.9447 C   0  0  1  0  0  0  0  0  0  0  0  0
   28.1942    0.3154    5.7219 C   0  0  1  0  0  0  0  0  0  0  0  0
  5  4  1  1  0  0  0
  5  8  1  0  0  0  0
  5 16  1  0  0  0  0
  8  7  1  6  0  0  0
  8 10  1  0  0  0  0
 10  1  1  1  0  0  0
 10 12  1  0  0  0  0
 11 18  1  0  0  0  0
 12 14  1  0  0  0  0
 14  2  1  1  0  0  0
 14 16  1  0  0  0  0
 16  9  1  6  0  0  0
 17  9  1  1  0  0  0
 17 11  1  0  0  0  0
 17 22  1  0  0  0  0
 18 19  1  1  0  0  0
 18 20  1  0  0  0  0
 19  3  1  0  0  0  0
 20 13  1  1  0  0  0
 20 21  1  0  0  0  0
 21 15  1  6  0  0  0
 21 22  1  0  0  0  0
 22  6  1  6  0  0  0
M  END
>  <CHROM.1>
85.68212146,40.75126237,57.94953094,27.33564099,1.86606859,8.07834342,1.48363619
1.10786797,0.55178566

>  <Name>
2fcx_lig

>  <RI>
224

>  <Rbt.Current_Directory>
/home/itssahil/PROJECTS/Mol_Feturizer/New_Systems/rnas/2fcx

>  <Rbt.Executable>
rbdock ($Id: //depot/dev/client3/rdock/2013.1/src/exe/rbdock.cxx#4 $)

>  <Rbt.Library>
libRbt.so (2013.1, Build901 2013/11/27)

>  <Rbt.Parameter_File>
/export/apps/rDock/src/rDock_2013.1_src/data/scripts/dock_solv.prm

>  <Rbt.Receptor>
prm/blind_docking_60.prm

>  <SCORE>
-11.8424

>  <SCORE.INTER>
-12.6274

>  <SCORE.INTER.CONST>
1

>  <SCORE.INTER.POLAR>
-2.08654

>  <SCORE.INTER.ROT>
3

>  <SCORE.INTER.SOLV>
16.1999

>  <SCORE.INTER.VDW>
-12.4631

>  <SCORE.INTER.norm>
-0.573973

>  <SCORE.INTRA>
0.306331

>  <SCORE.INTRA.DIHEDRAL>
-0.39043

>  <SCORE.INTRA.DIHEDRAL.0>
4.88619

>  <SCORE.INTRA.POLAR>
0

>  <SCORE.INTRA.POLAR.0>
0

>  <SCORE.INTRA.REPUL>
0

>  <SCORE.INTRA.REPUL.0>
0

>  <SCORE.INTRA.SOLV>
1.03456

>  <SCORE.INTRA.SOLV.lig_0>
-73.8187

>  <SCORE.INTRA.VDW>
-0.015733

>  <SCORE.INTRA.VDW.0>
-1.32335

>  <SCORE.INTRA.norm>
0.0139241

>  <SCORE.RESTR>
0.478669

>  <SCORE.RESTR.CAVITY>
0.478669

>  <SCORE.RESTR.norm>
0.0217577

>  <SCORE.SYSTEM>
0

>  <SCORE.SYSTEM.CONST>
0

>  <SCORE.SYSTEM.DIHEDRAL>
0

>  <SCORE.SYSTEM.SOLV>
0

>  <SCORE.SYSTEM.norm>
0

>  <SCORE.heavy>
22

>  <SCORE.norm>
-0.538291

>  <RMSD>
11.216

$$$$
2fcx_lig
 OpenBabel11021811433D
libRbt.so/2013.1/901 2013/11/27
 22 23  0  0  0  0  0  0  0  0999 V2000
   24.1521    3.9295    4.5952 N   0  0  0  0  0  0  0  0  0  0  0  0
   25.8606    1.3262    8.3871 N   0  0  0  0  0  0  0  0  0  0  0  0
   27.7755   -0.5252   12.0013 N   0  0  0  0  0  0  0  0  0  0  0  0
   28.6863    4.6598    6.2465 O   0  0  0  0  0  0  0  0  0  0  0  0
   27.6834    3.6684    6.0083 C   0  0  2  0  0  0  0  0  0  0  0  0
   31.0413    3.2061    8.6259 N   0  0  0  0  0  0  0  0  0  0  0  0
   26.8423    4.8484    4.0957 O   0  0  0  0  0  0  0  0  0  0  0  0
   26.4530    4.3136    5.3663 C   0  0  1  0  0  0  0  0  0  0  0  0
   28.4830    2.2099    7.7873 O   0  0  0  0  0  0  0  0  0  0  0  0
   25.3409    3.2811    5.1679 C   0  0  1  0  0  0  0  0  0  0  0  0
   28.0336    1.4466    9.9569 O   0  0  0  0  0  0  0  0  0  0  0  0
   24.9645    2.6315    6.5038 C   0  0  0  0  0  0  0  0  0  0  0  0
   30.2691   -1.4804    9.6152 O   0  0  0  0  0  0  0  0  0  0  0  0
   26.2003    1.9535    7.1022 C   0  0  1  0  0  0  0  0  0  0  0  0
   32.1096    0.6660    9.4264 O   0  0  0  0  0  0  0  0  0  0  0  0
   27.3429    2.9499    7.3197 C   0  0  2  0  0  0  0  0  0  0  0  0
   28.7670    2.4132    9.1822 C   0  0  1  0  0  0  0  0  0  0  0  0
   28.4053    0.0787    9.6933 C   0  0  2  0  0  0  0  0  0  0  0  0
   27.6045   -0.8746   10.5831 C   0  0  0  0  0  0  0  0  0  0  0  0
   29.8953   -0.1445    9.9662 C   0  0  2  0  0  0  0  0  0  0  0  0
   30.7224    0.8301    9.1261 C   0  0  1  0  0  0  0  0  0  0  0  0
   30.2705    2.2584    9.4420 C   0  0  1  0  0  0  0  0  0  0  0  0
  5  4  1  1  0  0  0
  5  8  1  0  0  0  0
  5 16  1  0  0  0  0
  8  7  1  6  0  0  0
  8 10  1  0  0  0  0
 10  1  1  1  0  0  0
 10 12  1  0  0  0  0
 11 18  1  0  0  0  0
 12 14  1  0  0  0  0
 14  2  1  1  0  0  0
 14 16  1  0  0  0  0
 16  9  1  6  0  0  0
 17  9  1  6  0  0  0
 17 11  1  0  0  0  0
 17 22  1  0  0  0  0
 18 19  1  1  0  0  0
 18 20  1  0  0  0  0
 19  3  1  0  0  0  0
 20 13  1  6  0  0  0
 20 21  1  0  0  0  0
 21 15  1  1  0  0  0
 21 22  1  0  0  0  0
 22  6  1  6  0  0  0
M  END
>  <CHROM.1>
132.55372155,89.09223354,-55.64599964,28.07837806,1.98102565,8.00862175,2.13238069
-0.18365363,-0.78659501

>  <Name>
2fcx_lig

>  <RI>
224

>  <Rbt.Current_Directory>
/home/itssahil/PROJECTS/Mol_Feturizer/New_Systems/rnas/2fcx

>  <Rbt.Executable>
rbdock ($Id: //depot/dev/client3/rdock/2013.1/src/exe/rbdock.cxx#4 $)

>  <Rbt.Library>
libRbt.so (2013.1, Build901 2013/11/27)

>  <Rbt.Parameter_File>
/export/apps/rDock/src/rDock_2013.1_src/data/scripts/dock_solv.prm

>  <Rbt.Receptor>
prm/blind_docking_100.prm

>  <SCORE>
-8.47695

>  <SCORE.INTER>
-12.071

>  <SCORE.INTER.CONST>
1

>  <SCORE.INTER.POLAR>
-2.47692

>  <SCORE.INTER.ROT>
3

>  <SCORE.INTER.SOLV>
18.4587

>  <SCORE.INTER.VDW>
-11.5439

>  <SCORE.INTER.norm>
-0.548683

>  <SCORE.INTRA>
3.58419

>  <SCORE.INTRA.DIHEDRAL>
5.06488

>  <SCORE.INTRA.DIHEDRAL.0>
4.88619

>  <SCORE.INTRA.POLAR>
0

>  <SCORE.INTRA.POLAR.0>
0

>  <SCORE.INTRA.REPUL>
0

>  <SCORE.INTRA.REPUL.0>
0

>  <SCORE.INTRA.SOLV>
3.4912

>  <SCORE.INTRA.SOLV.lig_0>
-73.8187

>  <SCORE.INTRA.VDW>
-0.693855

>  <SCORE.INTRA.VDW.0>
-1.32335

>  <SCORE.INTRA.norm>
0.162918

>  <SCORE.RESTR>
0.00989653

>  <SCORE.RESTR.CAVITY>
0.00989653

>  <SCORE.RESTR.norm>
0.000449842

>  <SCORE.SYSTEM>
0

>  <SCORE.SYSTEM.CONST>
0

>  <SCORE.SYSTEM.DIHEDRAL>
0

>  <SCORE.SYSTEM.SOLV>
0

>  <SCORE.SYSTEM.norm>
0

>  <SCORE.heavy>
22

>  <SCORE.norm>
-0.385316

>  <RMSD>
11.221

$$$$
2fcx_lig
 OpenBabel11021811433D
libRbt.so/2013.1/901 2013/11/27
 22 23  0  0  0  0  0  0  0  0999 V2000
   26.3991    6.0531   10.9938 N   0  0  0  0  0  0  0  0  0  0  0  0
   25.0377    2.0749    8.4650 N   0  0  0  0  0  0  0  0  0  0  0  0
   27.7620   -0.1436   10.8388 N   0  0  0  0  0  0  0  0  0  0  0  0
   29.6348    3.6545    8.2378 O   0  0  0  0  0  0  0  0  0  0  0  0
   28.2704    4.0742    8.3259 C   0  0  2  0  0  0  0  0  0  0  0  0
   28.1681    1.0230    4.4759 N   0  0  0  0  0  0  0  0  0  0  0  0
   28.8686    6.0798    9.4999 O   0  0  0  0  0  0  0  0  0  0  0  0
   28.0595    4.9016    9.5961 C   0  0  1  0  0  0  0  0  0  0  0  0
   27.4495    2.2123    6.9879 O   0  0  0  0  0  0  0  0  0  0  0  0
   26.5896    5.3011    9.7448 C   0  0  1  0  0  0  0  0  0  0  0  0
   28.5288    0.4867    8.1495 O   0  0  0  0  0  0  0  0  0  0  0  0
   25.6931    4.0584    9.7648 C   0  0  0  0  0  0  0  0  0  0  0  0
   25.8025   -1.9305    7.5122 O   0  0  0  0  0  0  0  0  0  0  0  0
   25.8878    3.2738    8.4643 C   0  0  1  0  0  0  0  0  0  0  0  0
   26.7510   -1.4380    4.8877 O   0  0  0  0  0  0  0  0  0  0  0  0
   27.3471    2.8509    8.2715 C   0  0  2  0  0  0  0  0  0  0  0  0
   28.4973    1.2299    6.9170 C   0  0  1  0  0  0  0  0  0  0  0  0
   27.3267   -0.2645    8.4132 C   0  0  2  0  0  0  0  0  0  0  0  0
   27.4617   -1.0493    9.7200 C   0  0  0  0  0  0  0  0  0  0  0  0
   27.0437   -1.2567    7.2820 C   0  0  2  0  0  0  0  0  0  0  0  0
   26.9523   -0.5064    5.9522 C   0  0  1  0  0  0  0  0  0  0  0  0
   28.2494    0.2788    5.7399 C   0  0  1  0  0  0  0  0  0  0  0  0
  5  4  1  1  0  0  0
  5  8  1  0  0  0  0
  5 16  1  0  0  0  0
  8  7  1  6  0  0  0
  8 10  1  0  0  0  0
 10  1  1  1  0  0  0
 10 12  1  0  0  0  0
 11 18  1  0  0  0  0
 12 14  1  0  0  0  0
 14  2  1  1  0  0  0
 14 16  1  0  0  0  0
 16  9  1  6  0  0  0
 17  9  1  1  0  0  0
 17 11  1  0  0  0  0
 17 22  1  0  0  0  0
 18 19  1  1  0  0  0
 18 20  1  0  0  0  0
 19  3  1  0  0  0  0
 20 13  1  1  0  0  0
 20 21  1  0  0  0  0
 21 15  1  6  0  0  0
 21 22  1  0  0  0  0
 22  6  1  6  0  0  0
M  END
>  <CHROM.1>
88.06632876,39.97779998,57.19585732,27.37008908,1.84439935,8.08797176,1.48509155
1.08686732,0.55114031

>  <Name>
2fcx_lig

>  <RI>
224

>  <Rbt.Current_Directory>
/home/itssahil/PROJECTS/Mol_Feturizer/New_Systems/rnas/2fcx

>  <Rbt.Executable>
rbdock ($Id: //depot/dev/client3/rdock/2013.1/src/exe/rbdock.cxx#4 $)

>  <Rbt.Library>
libRbt.so (2013.1, Build901 2013/11/27)

>  <Rbt.Parameter_File>
/export/apps/rDock/src/rDock_2013.1_src/data/scripts/dock_solv.prm

>  <Rbt.Receptor>
prm/blind_docking_60.prm

>  <SCORE>
-11.6569

>  <SCORE.INTER>
-12.8566

>  <SCORE.INTER.CONST>
1

>  <SCORE.INTER.POLAR>
-2.14189

>  <SCORE.INTER.ROT>
3

>  <SCORE.INTER.SOLV>
16.2556

>  <SCORE.INTER.VDW>
-12.45

>  <SCORE.INTER.norm>
-0.584393

>  <SCORE.INTRA>
0.758168

>  <SCORE.INTRA.DIHEDRAL>
0.19099

>  <SCORE.INTRA.DIHEDRAL.0>
4.88619

>  <SCORE.INTRA.POLAR>
0

>  <SCORE.INTRA.POLAR.0>
0

>  <SCORE.INTRA.REPUL>
0

>  <SCORE.INTRA.REPUL.0>
0

>  <SCORE.INTRA.SOLV>
1.43391

>  <SCORE.INTRA.SOLV.lig_0>
-73.8187

>  <SCORE.INTRA.VDW>
-0.0542816

>  <SCORE.INTRA.VDW.0>
-1.32335

>  <SCORE.INTRA.norm>
0.0344622

>  <SCORE.RESTR>
0.441602

>  <SCORE.RESTR.CAVITY>
0.441602

>  <SCORE.RESTR.norm>
0.0200728

>  <SCORE.SYSTEM>
0

>  <SCORE.SYSTEM.CONST>
0

>  <SCORE.SYSTEM.DIHEDRAL>
0

>  <SCORE.SYSTEM.SOLV>
0

>  <SCORE.SYSTEM.norm>
0

>  <SCORE.heavy>
22

>  <SCORE.norm>
-0.529858

>  <RMSD>
11.223

$$$$
2fcx_lig
 OpenBabel11021811433D
libRbt.so/2013.1/901 2013/11/27
 22 23  0  0  0  0  0  0  0  0999 V2000
   28.2366    6.4559    9.6912 N   0  0  0  0  0  0  0  0  0  0  0  0
   29.8476    2.2318    7.7843 N   0  0  0  0  0  0  0  0  0  0  0  0
   31.6437   -2.1925    8.7926 N   0  0  0  0  0  0  0  0  0  0  0  0
   25.2819    2.5802    9.4314 O   0  0  0  0  0  0  0  0  0  0  0  0
   26.6299    2.9986    9.6620 C   0  0  2  0  0  0  0  0  0  0  0  0
   25.2938   -0.7144    8.2383 N   0  0  0  0  0  0  0  0  0  0  0  0
   25.9148    5.0524   10.6763 O   0  0  0  0  0  0  0  0  0  0  0  0
   26.7184    4.5258    9.6138 C   0  0  1  0  0  0  0  0  0  0  0  0
   27.5810    0.9095    8.8483 O   0  0  0  0  0  0  0  0  0  0  0  0
   28.1661    4.9905    9.7885 C   0  0  1  0  0  0  0  0  0  0  0  0
   28.8619   -0.2421    7.2592 O   0  0  0  0  0  0  0  0  0  0  0  0
   29.0640    4.3716    8.7119 C   0  0  0  0  0  0  0  0  0  0  0  0
   29.2828   -3.2025    9.4365 O   0  0  0  0  0  0  0  0  0  0  0  0
   28.9943    2.8452    8.8117 C   0  0  1  0  0  0  0  0  0  0  0  0
   26.4833   -3.2132    8.9969 O   0  0  0  0  0  0  0  0  0  0  0  0
   27.5613    2.3319    8.6423 C   0  0  2  0  0  0  0  0  0  0  0  0
   27.5271    0.1515    7.6275 C   0  0  1  0  0  0  0  0  0  0  0  0
   29.5020   -1.1126    8.2139 C   0  0  2  0  0  0  0  0  0  0  0  0
   30.8975   -1.5080    7.7262 C   0  0  0  0  0  0  0  0  0  0  0  0
   28.6841   -2.3900    8.4220 C   0  0  2  0  0  0  0  0  0  0  0  0
   27.2657   -2.0251    8.8632 C   0  0  1  0  0  0  0  0  0  0  0  0
   26.6497   -1.0919    7.8174 C   0  0  1  0  0  0  0  0  0  0  0  0
  5  4  1  6  0  0  0
  5  8  1  0  0  0  0
  5 16  1  0  0  0  0
  8  7  1  1  0  0  0
  8 10  1  0  0  0  0
 10  1  1  6  0  0  0
 10 12  1  0  0  0  0
 11 18  1  0  0  0  0
 12 14  1  0  0  0  0
 14  2  1  6  0  0  0
 14 16  1  0  0  0  0
 16  9  1  1  0  0  0
 17  9  1  1  0  0  0
 17 11  1  0  0  0  0
 17 22  1  0  0  0  0
 18 19  1  6  0  0  0
 18 20  1  0  0  0  0
 19  3  1  0  0  0  0
 20 13  1  1  0  0  0
 20 21  1  0  0  0  0
 21 15  1  6  0  0  0
 21 22  1  0  0  0  0
 22  6  1  1  0  0  0
M  END
>  <CHROM.1>
137.39580143,97.70734924,169.91033853,27.98202545,0.95855146,8.78890735,-1.77719611
-0.16107844,-3.01146825

>  <Name>
2fcx_lig

>  <RI>
224

>  <Rbt.Current_Directory>
/home/itssahil/PROJECTS/Mol_Feturizer/New_Systems/rnas/2fcx

>  <Rbt.Executable>
rbdock ($Id: //depot/dev/client3/rdock/2013.1/src/exe/rbdock.cxx#4 $)

>  <Rbt.Library>
libRbt.so (2013.1, Build901 2013/11/27)

>  <Rbt.Parameter_File>
/export/apps/rDock/src/rDock_2013.1_src/data/scripts/dock_solv.prm

>  <Rbt.Receptor>
prm/blind_docking_60.prm

>  <SCORE>
-5.23491

>  <SCORE.INTER>
-9.87861

>  <SCORE.INTER.CONST>
1

>  <SCORE.INTER.POLAR>
-1.43957

>  <SCORE.INTER.ROT>
3

>  <SCORE.INTER.SOLV>
13.8661

>  <SCORE.INTER.VDW>
-12.0092

>  <SCORE.INTER.norm>
-0.449028

>  <SCORE.INTRA>
4.28529

>  <SCORE.INTRA.DIHEDRAL>
6.30472

>  <SCORE.INTRA.DIHEDRAL.0>
4.88619

>  <SCORE.INTRA.POLAR>
0

>  <SCORE.INTRA.POLAR.0>
0

>  <SCORE.INTRA.REPUL>
0

>  <SCORE.INTRA.REPUL.0>
0

>  <SCORE.INTRA.SOLV>
3.10451

>  <SCORE.INTRA.SOLV.lig_0>
-73.8187

>  <SCORE.INTRA.VDW>
-0.419322

>  <SCORE.INTRA.VDW.0>
-1.32335

>  <SCORE.INTRA.norm>
0.194786

>  <SCORE.RESTR>
0.358403

>  <SCORE.RESTR.CAVITY>
0.358403

>  <SCORE.RESTR.norm>
0.0162911

>  <SCORE.SYSTEM>
0

>  <SCORE.SYSTEM.CONST>
0

>  <SCORE.SYSTEM.DIHEDRAL>
0

>  <SCORE.SYSTEM.SOLV>
0

>  <SCORE.SYSTEM.norm>
0

>  <SCORE.heavy>
22

>  <SCORE.norm>
-0.237951

>  <RMSD>
11.226

$$$$
2fcx_lig
 OpenBabel11021811433D
libRbt.so/2013.1/901 2013/11/27
 22 23  0  0  0  0  0  0  0  0999 V2000
   27.7948   -2.2653   11.4668 N   0  0  0  0  0  0  0  0  0  0  0  0
   29.9753    1.8898   10.0331 N   0  0  0  0  0  0  0  0  0  0  0  0
   27.5173    6.0796   11.0984 N   0  0  0  0  0  0  0  0  0  0  0  0
   25.6184    0.6763    8.2374 O   0  0  0  0  0  0  0  0  0  0  0  0
   26.8789    0.1543    8.6665 C   0  0  2  0  0  0  0  0  0  0  0  0
   28.1415    3.2273    5.2617 N   0  0  0  0  0  0  0  0  0  0  0  0
   25.8941   -1.9341    9.3200 O   0  0  0  0  0  0  0  0  0  0  0  0
   26.6706   -0.8364    9.8143 C   0  0  1  0  0  0  0  0  0  0  0  0
   28.1212    2.1053    7.9039 O   0  0  0  0  0  0  0  0  0  0  0  0
   28.0139   -1.3532   10.3347 C   0  0  1  0  0  0  0  0  0  0  0  0
   26.4204    3.5815    8.5519 O   0  0  0  0  0  0  0  0  0  0  0  0
   28.8986   -0.1884   10.7917 C   0  0  0  0  0  0  0  0  0  0  0  0
   28.7343    6.4531    8.8367 O   0  0  0  0  0  0  0  0  0  0  0  0
   29.1302    0.7626    9.6141 C   0  0  1  0  0  0  0  0  0  0  0  0
   28.8737    5.8832    6.0643 O   0  0  0  0  0  0  0  0  0  0  0  0
   27.8110    1.3073    9.0585 C   0  0  2  0  0  0  0  0  0  0  0  0
   27.0129    2.8926    7.4353 C   0  0  1  0  0  0  0  0  0  0  0  0
   27.3028    4.5215    9.1974 C   0  0  2  0  0  0  0  0  0  0  0  0
   26.5817    5.2311   10.3455 C   0  0  0  0  0  0  0  0  0  0  0  0
   27.7907    5.5816    8.2062 C   0  0  2  0  0  0  0  0  0  0  0  0
   28.4738    4.8991    7.0199 C   0  0  1  0  0  0  0  0  0  0  0  0
   27.4919    3.9076    6.3901 C   0  0  1  0  0  0  0  0  0  0  0  0
  5  4  1  1  0  0  0
  5  8  1  0  0  0  0
  5 16  1  0  0  0  0
  8  7  1  6  0  0  0
  8 10  1  0  0  0  0
 10  1  1  1  0  0  0
 10 12  1  0  0  0  0
 11 18  1  0  0  0  0
 12 14  1  0  0  0  0
 14  2  1  1  0  0  0
 14 16  1  0  0  0  0
 16  9  1  6  0  0  0
 17  9  1  1  0  0  0
 17 11  1  0  0  0  0
 17 22  1  0  0  0  0
 18 19  1  1  0  0  0
 18 20  1  0  0  0  0
 19  3  1  0  0  0  0
 20 13  1  1  0  0  0
 20 21  1  0  0  0  0
 21 15  1  6  0  0  0
 21 22  1  0  0  0  0
 22  6  1  6  0  0  0
M  END
>  <CHROM.1>
71.22160248,48.28428684,173.77783587,27.67367509,2.41200085,8.78465757,-2.07243501
-1.37492979,-0.81078754

>  <Name>
2fcx_lig

>  <RI>
2.63278e+07

>  <Rbt.Current_Directory>
/home/itssahil/PROJECTS/Mol_Feturizer/New_Systems/rnas/2fcx

>  <Rbt.Executable>
rbdock ($Id: //depot/dev/client3/rdock/2013.1/src/exe/rbdock.cxx#4 $)

>  <Rbt.Library>
libRbt.so (2013.1, Build901 2013/11/27)

>  <Rbt.Parameter_File>
/export/apps/rDock/src/rDock_2013.1_src/data/scripts/dock_solv.prm

>  <Rbt.Receptor>
prm/blind_docking_40.prm

>  <SCORE>
-11.2529

>  <SCORE.INTER>
-11.3806

>  <SCORE.INTER.CONST>
1

>  <SCORE.INTER.POLAR>
-2.36326

>  <SCORE.INTER.ROT>
3

>  <SCORE.INTER.SOLV>
15.6623

>  <SCORE.INTER.VDW>
-10.5303

>  <SCORE.INTER.norm>
-0.517302

>  <SCORE.INTRA>
-0.496997

>  <SCORE.INTRA.DIHEDRAL>
-3.47583

>  <SCORE.INTRA.DIHEDRAL.0>
4.88619

>  <SCORE.INTRA.POLAR>
0

>  <SCORE.INTRA.POLAR.0>
0

>  <SCORE.INTRA.REPUL>
0

>  <SCORE.INTRA.REPUL.0>
0

>  <SCORE.INTRA.SOLV>
0.442157

>  <SCORE.INTRA.SOLV.lig_0>
-73.8187

>  <SCORE.INTRA.VDW>
1.01984

>  <SCORE.INTRA.VDW.0>
-1.32335

>  <SCORE.INTRA.norm>
-0.0225908

>  <SCORE.RESTR>
0.624761

>  <SCORE.RESTR.CAVITY>
0.624761

>  <SCORE.RESTR.norm>
0.0283982

>  <SCORE.SYSTEM>
0

>  <SCORE.SYSTEM.CONST>
0

>  <SCORE.SYSTEM.DIHEDRAL>
0

>  <SCORE.SYSTEM.SOLV>
0

>  <SCORE.SYSTEM.norm>
0

>  <SCORE.heavy>
22

>  <SCORE.norm>
-0.511494

>  <RMSD>
11.239

$$$$
2fcx_lig
 OpenBabel11021811433D
libRbt.so/2013.1/901 2013/11/27
 22 23  0  0  0  0  0  0  0  0999 V2000
   31.6490   -2.7534   10.3959 N   0  0  0  0  0  0  0  0  0  0  0  0
   27.5283   -0.3196   11.4784 N   0  0  0  0  0  0  0  0  0  0  0  0
   25.7399    0.0290    6.9392 N   0  0  0  0  0  0  0  0  0  0  0  0
   30.5095    1.3512    8.0142 O   0  0  0  0  0  0  0  0  0  0  0  0
   30.4648    0.6960    9.2846 C   0  0  2  0  0  0  0  0  0  0  0  0
   28.7806    4.7566   10.2053 N   0  0  0  0  0  0  0  0  0  0  0  0
   32.5171   -0.4714    8.8563 O   0  0  0  0  0  0  0  0  0  0  0  0
   31.1388   -0.6748    9.1894 C   0  0  1  0  0  0  0  0  0  0  0  0
   28.4821    1.9080   10.0135 O   0  0  0  0  0  0  0  0  0  0  0  0
   31.0391   -1.4215   10.5216 C   0  0  1  0  0  0  0  0  0  0  0  0
   27.5188    2.1203    7.8878 O   0  0  0  0  0  0  0  0  0  0  0  0
   29.5741   -1.5774   10.9433 C   0  0  0  0  0  0  0  0  0  0  0  0
   24.2692    3.2529    9.2438 O   0  0  0  0  0  0  0  0  0  0  0  0
   28.9363   -0.1917   11.0770 C   0  0  1  0  0  0  0  0  0  0  0  0
   25.9825    5.3684   10.0311 O   0  0  0  0  0  0  0  0  0  0  0  0
   29.0120    0.5951    9.7651 C   0  0  2  0  0  0  0  0  0  0  0  0
   28.4124    2.7313    8.8367 C   0  0  1  0  0  0  0  0  0  0  0  0
   26.1575    2.0096    8.3500 C   0  0  2  0  0  0  0  0  0  0  0  0
   25.2740    1.3844    7.2683 C   0  0  0  0  0  0  0  0  0  0  0  0
   25.5871    3.3861    8.7024 C   0  0  2  0  0  0  0  0  0  0  0  0
   26.4783    4.0586    9.7478 C   0  0  1  0  0  0  0  0  0  0  0  0
   27.9071    4.1322    9.2026 C   0  0  1  0  0  0  0  0  0  0  0  0
  5  4  1  6  0  0  0
  5  8  1  0  0  0  0
  5 16  1  0  0  0  0
  8  7  1  1  0  0  0
  8 10  1  0  0  0  0
 10  1  1  6  0  0  0
 10 12  1  0  0  0  0
 11 18  1  0  0  0  0
 12 14  1  0  0  0  0
 14  2  1  6  0  0  0
 14 16  1  0  0  0  0
 16  9  1  1  0  0  0
 17  9  1  1  0  0  0
 17 11  1  0  0  0  0
 17 22  1  0  0  0  0
 18 19  1  6  0  0  0
 18 20  1  0  0  0  0
 19  3  1  0  0  0  0
 20 13  1  1  0  0  0
 20 21  1  0  0  0  0
 21 15  1  6  0  0  0
 21 22  1  0  0  0  0
 22  6  1  1  0  0  0
M  END
>  <CHROM.1>
63.42193470,62.26896535,61.14493316,28.30593427,1.40913900,9.34450442,0.70277012
0.28123704,-3.02712007

>  <Name>
2fcx_lig

>  <RI>
224

>  <Rbt.Current_Directory>
/home/itssahil/PROJECTS/Mol_Feturizer/New_Systems/rnas/2fcx

>  <Rbt.Executable>
rbdock ($Id: //depot/dev/client3/rdock/2013.1/src/exe/rbdock.cxx#4 $)

>  <Rbt.Library>
libRbt.so (2013.1, Build901 2013/11/27)

>  <Rbt.Parameter_File>
/export/apps/rDock/src/rDock_2013.1_src/data/scripts/dock_solv.prm

>  <Rbt.Receptor>
prm/blind_docking_60.prm

>  <SCORE>
-16.0646

>  <SCORE.INTER>
-14.4072

>  <SCORE.INTER.CONST>
1

>  <SCORE.INTER.POLAR>
-2.80606

>  <SCORE.INTER.ROT>
3

>  <SCORE.INTER.SOLV>
19.8684

>  <SCORE.INTER.VDW>
-12.4741

>  <SCORE.INTER.norm>
-0.654874

>  <SCORE.INTRA>
-1.81071

>  <SCORE.INTRA.DIHEDRAL>
-4.79033

>  <SCORE.INTRA.DIHEDRAL.0>
4.88619

>  <SCORE.INTRA.POLAR>
0

>  <SCORE.INTRA.POLAR.0>
0

>  <SCORE.INTRA.REPUL>
0

>  <SCORE.INTRA.REPUL.0>
0

>  <SCORE.INTRA.SOLV>
-0.932067

>  <SCORE.INTRA.SOLV.lig_0>
-73.8187

>  <SCORE.INTRA.VDW>
1.05049

>  <SCORE.INTRA.VDW.0>
-1.32335

>  <SCORE.INTRA.norm>
-0.0823051

>  <SCORE.RESTR>
0.153352

>  <SCORE.RESTR.CAVITY>
0.153352

>  <SCORE.RESTR.norm>
0.00697056

>  <SCORE.SYSTEM>
0

>  <SCORE.SYSTEM.CONST>
0

>  <SCORE.SYSTEM.DIHEDRAL>
0

>  <SCORE.SYSTEM.SOLV>
0

>  <SCORE.SYSTEM.norm>
0

>  <SCORE.heavy>
22

>  <SCORE.norm>
-0.730209

>  <RMSD>
11.240

$$$$
2fcx_lig
 OpenBabel11021811433D
libRbt.so/2013.1/901 2013/11/27
 22 23  0  0  0  0  0  0  0  0999 V2000
   27.7648    6.5066    6.4919 N   0  0  0  0  0  0  0  0  0  0  0  0
   29.0112    1.8354    5.6546 N   0  0  0  0  0  0  0  0  0  0  0  0
   26.9773   -2.0080    9.8267 N   0  0  0  0  0  0  0  0  0  0  0  0
   29.1077    3.6113   10.1842 O   0  0  0  0  0  0  0  0  0  0  0  0
   29.3511    3.9299    8.8113 C   0  0  2  0  0  0  0  0  0  0  0  0
   32.2979    0.7603    9.8692 N   0  0  0  0  0  0  0  0  0  0  0  0
   28.8291    6.2456    9.1622 O   0  0  0  0  0  0  0  0  0  0  0  0
   28.4644    5.1011    8.3818 C   0  0  1  0  0  0  0  0  0  0  0  0
   30.1042    1.6799    8.2621 O   0  0  0  0  0  0  0  0  0  0  0  0
   28.6591    5.4118    6.8959 C   0  0  1  0  0  0  0  0  0  0  0  0
   28.6193    0.3089    9.4483 O   0  0  0  0  0  0  0  0  0  0  0  0
   28.3566    4.1751    6.0430 C   0  0  0  0  0  0  0  0  0  0  0  0
   29.7451   -2.7616    7.7204 O   0  0  0  0  0  0  0  0  0  0  0  0
   29.2878    3.0333    6.4600 C   0  0  1  0  0  0  0  0  0  0  0  0
   32.0920   -2.0005    9.1144 O   0  0  0  0  0  0  0  0  0  0  0  0
   29.1281    2.6856    7.9430 C   0  0  2  0  0  0  0  0  0  0  0  0
   29.8652    1.0264    9.5205 C   0  0  1  0  0  0  0  0  0  0  0  0
   28.6062   -0.7480    8.4676 C   0  0  2  0  0  0  0  0  0  0  0  0
   27.2611   -1.4775    8.4849 C   0  0  0  0  0  0  0  0  0  0  0  0
   29.7119   -1.7687    8.7502 C   0  0  2  0  0  0  0  0  0  0  0  0
   31.0668   -1.0600    8.7886 C   0  0  1  0  0  0  0  0  0  0  0  0
   31.0095    0.0553    9.8359 C   0  0  1  0  0  0  0  0  0  0  0  0
  5  4  1  1  0  0  0
  5  8  1  0  0  0  0
  5 16  1  0  0  0  0
  8  7  1  1  0  0  0
  8 10  1  0  0  0  0
 10  1  1  6  0  0  0
 10 12  1  0  0  0  0
 11 18  1  0  0  0  0
 12 14  1  0  0  0  0
 14  2  1  6  0  0  0
 14 16  1  0  0  0  0
 16  9  1  1  0  0  0
 17  9  1  6  0  0  0
 17 11  1  0  0  0  0
 17 22  1  0  0  0  0
 18 19  1  1  0  0  0
 18 20  1  0  0  0  0
 19  3  1  0  0  0  0
 20 13  1  6  0  0  0
 20 21  1  0  0  0  0
 21 15  1  1  0  0  0
 21 22  1  0  0  0  0
 22  6  1  6  0  0  0
M  END
>  <CHROM.1>
73.83720354,63.94907018,-57.00361830,29.34263811,1.54880469,8.39189943,1.79564079
-0.64090082,-0.05981405

>  <Name>
2fcx_lig

>  <RI>
2.51704e+07

>  <Rbt.Current_Directory>
/home/itssahil/PROJECTS/Mol_Feturizer/New_Systems/rnas/2fcx

>  <Rbt.Executable>
rbdock ($Id: //depot/dev/client3/rdock/2013.1/src/exe/rbdock.cxx#4 $)

>  <Rbt.Library>
libRbt.so (2013.1, Build901 2013/11/27)

>  <Rbt.Parameter_File>
/export/apps/rDock/src/rDock_2013.1_src/data/scripts/dock_solv.prm

>  <Rbt.Receptor>
prm/blind_docking_80.prm

>  <SCORE>
-9.77928

>  <SCORE.INTER>
-8.54049

>  <SCORE.INTER.CONST>
1

>  <SCORE.INTER.POLAR>
-1.10247

>  <SCORE.INTER.ROT>
3

>  <SCORE.INTER.SOLV>
12.8406

>  <SCORE.INTER.VDW>
-11.899

>  <SCORE.INTER.norm>
-0.388204

>  <SCORE.INTRA>
-1.374

>  <SCORE.INTRA.DIHEDRAL>
-3.86594

>  <SCORE.INTRA.DIHEDRAL.0>
4.88619

>  <SCORE.INTRA.POLAR>
0

>  <SCORE.INTRA.POLAR.0>
0

>  <SCORE.INTRA.REPUL>
0

>  <SCORE.INTRA.REPUL.0>
0

>  <SCORE.INTRA.SOLV>
0.691197

>  <SCORE.INTRA.SOLV.lig_0>
-73.8187

>  <SCORE.INTRA.VDW>
0.213371

>  <SCORE.INTRA.VDW.0>
-1.32335

>  <SCORE.INTRA.norm>
-0.0624546

>  <SCORE.RESTR>
0.135214

>  <SCORE.RESTR.CAVITY>
0.135214

>  <SCORE.RESTR.norm>
0.00614608

>  <SCORE.SYSTEM>
0

>  <SCORE.SYSTEM.CONST>
0

>  <SCORE.SYSTEM.DIHEDRAL>
0

>  <SCORE.SYSTEM.SOLV>
0

>  <SCORE.SYSTEM.norm>
0

>  <SCORE.heavy>
22

>  <SCORE.norm>
-0.444513

>  <RMSD>
11.258

$$$$
2fcx_lig
 OpenBabel11021811433D
libRbt.so/2013.1/901 2013/11/27
 22 23  0  0  0  0  0  0  0  0999 V2000
   27.4471    6.0243   11.0442 N   0  0  0  0  0  0  0  0  0  0  0  0
   24.8891    2.5273    8.7416 N   0  0  0  0  0  0  0  0  0  0  0  0
   27.4890   -0.5425   10.9741 N   0  0  0  0  0  0  0  0  0  0  0  0
   29.7315    2.7026    8.2935 O   0  0  0  0  0  0  0  0  0  0  0  0
   28.5507    3.5014    8.4075 C   0  0  2  0  0  0  0  0  0  0  0  0
   27.5553    0.7309    4.5938 N   0  0  0  0  0  0  0  0  0  0  0  0
   29.7515    5.2864    9.4705 O   0  0  0  0  0  0  0  0  0  0  0  0
   28.6429    4.3963    9.6457 C   0  0  1  0  0  0  0  0  0  0  0  0
   27.1709    1.9126    7.1815 O   0  0  0  0  0  0  0  0  0  0  0  0
   27.3580    5.2082    9.8246 C   0  0  1  0  0  0  0  0  0  0  0  0
   28.1874    0.0684    8.2097 O   0  0  0  0  0  0  0  0  0  0  0  0
   26.1439    4.2790    9.9293 C   0  0  0  0  0  0  0  0  0  0  0  0
   25.2082   -2.0805    7.7759 O   0  0  0  0  0  0  0  0  0  0  0  0
   26.0471    3.4287    8.6595 C   0  0  1  0  0  0  0  0  0  0  0  0
   25.9630   -1.6050    5.0862 O   0  0  0  0  0  0  0  0  0  0  0  0
   27.3133    2.5960    8.4380 C   0  0  2  0  0  0  0  0  0  0  0  0
   28.1151    0.8436    6.9989 C   0  0  1  0  0  0  0  0  0  0  0  0
   26.9501   -0.5802    8.5667 C   0  0  2  0  0  0  0  0  0  0  0  0
   27.1279   -1.4079    9.8414 C   0  0  0  0  0  0  0  0  0  0  0  0
   26.4802   -1.5134    7.4475 C   0  0  2  0  0  0  0  0  0  0  0  0
   26.3406   -0.7233    6.1452 C   0  0  1  0  0  0  0  0  0  0  0  0
   27.6797   -0.0506    5.8316 C   0  0  1  0  0  0  0  0  0  0  0  0
  5  4  1  1  0  0  0
  5  8  1  0  0  0  0
  5 16  1  0  0  0  0
  8  7  1  6  0  0  0
  8 10  1  0  0  0  0
 10  1  1  1  0  0  0
 10 12  1  0  0  0  0
 11 18  1  0  0  0  0
 12 14  1  0  0  0  0
 14  2  1  1  0  0  0
 14 16  1  0  0  0  0
 16  9  1  6  0  0  0
 17  9  1  1  0  0  0
 17 11  1  0  0  0  0
 17 22  1  0  0  0  0
 18 19  1  1  0  0  0
 18 20  1  0  0  0  0
 19  3  1  0  0  0  0
 20 13  1  1  0  0  0
 20 21  1  0  0  0  0
 21 15  1  6  0  0  0
 21 22  1  0  0  0  0
 22  6  1  6  0  0  0
M  END
>  <CHROM.1>
74.47059708,44.82137593,62.28448728,27.29193629,1.56623021,8.21817294,1.04695981
1.12673307,0.94006206

>  <Name>
2fcx_lig

>  <RI>
224

>  <Rbt.Current_Directory>
/home/itssahil/PROJECTS/Mol_Feturizer/New_Systems/rnas/2fcx

>  <Rbt.Executable>
rbdock ($Id: //depot/dev/client3/rdock/2013.1/src/exe/rbdock.cxx#4 $)

>  <Rbt.Library>
libRbt.so (2013.1, Build901 2013/11/27)

>  <Rbt.Parameter_File>
/export/apps/rDock/src/rDock_2013.1_src/data/scripts/dock_solv.prm

>  <Rbt.Receptor>
prm/blind_docking_60.prm

>  <SCORE>
-11.6948

>  <SCORE.INTER>
-10.7477

>  <SCORE.INTER.CONST>
1

>  <SCORE.INTER.POLAR>
-1.74309

>  <SCORE.INTER.ROT>
3

>  <SCORE.INTER.SOLV>
20.5792

>  <SCORE.INTER.VDW>
-13.8146

>  <SCORE.INTER.norm>
-0.488532

>  <SCORE.INTRA>
-1.12112

>  <SCORE.INTRA.DIHEDRAL>
-2.79725

>  <SCORE.INTRA.DIHEDRAL.0>
4.88619

>  <SCORE.INTRA.POLAR>
0

>  <SCORE.INTRA.POLAR.0>
0

>  <SCORE.INTRA.REPUL>
0

>  <SCORE.INTRA.REPUL.0>
0

>  <SCORE.INTRA.SOLV>
-0.175607

>  <SCORE.INTRA.SOLV.lig_0>
-73.8187

>  <SCORE.INTRA.VDW>
0.365312

>  <SCORE.INTRA.VDW.0>
-1.32335

>  <SCORE.INTRA.norm>
-0.05096

>  <SCORE.RESTR>
0.174003

>  <SCORE.RESTR.CAVITY>
0.174003

>  <SCORE.RESTR.norm>
0.00790925

>  <SCORE.SYSTEM>
0

>  <SCORE.SYSTEM.CONST>
0

>  <SCORE.SYSTEM.DIHEDRAL>
0

>  <SCORE.SYSTEM.SOLV>
0

>  <SCORE.SYSTEM.norm>
0

>  <SCORE.heavy>
22

>  <SCORE.norm>
-0.531582

>  <RMSD>
11.261

$$$$
2fcx_lig
 OpenBabel11021811433D
libRbt.so/2013.1/901 2013/11/27
 22 23  0  0  0  0  0  0  0  0999 V2000
   29.0933    6.2630    6.6934 N   0  0  0  0  0  0  0  0  0  0  0  0
   29.1236    1.3671    6.3710 N   0  0  0  0  0  0  0  0  0  0  0  0
   24.5130    2.4514    6.4392 N   0  0  0  0  0  0  0  0  0  0  0  0
   26.6418    3.5615    9.9355 O   0  0  0  0  0  0  0  0  0  0  0  0
   27.8302    3.6283    9.1425 C   0  0  2  0  0  0  0  0  0  0  0  0
   27.9851   -1.1851   10.5696 N   0  0  0  0  0  0  0  0  0  0  0  0
   27.9233    6.0195    9.3208 O   0  0  0  0  0  0  0  0  0  0  0  0
   27.8693    4.9491    8.3703 C   0  0  1  0  0  0  0  0  0  0  0  0
   28.0466    1.2077    8.9849 O   0  0  0  0  0  0  0  0  0  0  0  0
   29.0992    5.0093    7.4614 C   0  0  1  0  0  0  0  0  0  0  0  0
   25.7144    1.1569    8.7607 O   0  0  0  0  0  0  0  0  0  0  0  0
   29.1090    3.8246    6.4894 C   0  0  0  0  0  0  0  0  0  0  0  0
   25.8054   -1.5591    6.2514 O   0  0  0  0  0  0  0  0  0  0  0  0
   29.1171    2.5171    7.2863 C   0  0  1  0  0  0  0  0  0  0  0  0
   26.8465   -2.8649    8.5407 O   0  0  0  0  0  0  0  0  0  0  0  0
   27.9018    2.4111    8.2124 C   0  0  2  0  0  0  0  0  0  0  0  0
   26.8213    0.7650    9.5936 C   0  0  1  0  0  0  0  0  0  0  0  0
   25.7225    0.5538    7.4511 C   0  0  2  0  0  0  0  0  0  0  0  0
   24.4958    0.9962    6.6504 C   0  0  0  0  0  0  0  0  0  0  0  0
   25.7062   -0.9738    7.5533 C   0  0  2  0  0  0  0  0  0  0  0  0
   26.8957   -1.4447    8.3918 C   0  0  1  0  0  0  0  0  0  0  0  0
   26.8358   -0.7595    9.7596 C   0  0  1  0  0  0  0  0  0  0  0  0
  5  4  1  6  0  0  0
  5  8  1  0  0  0  0
  5 16  1  0  0  0  0
  8  7  1  1  0  0  0
  8 10  1  0  0  0  0
 10  1  1  6  0  0  0
 10 12  1  0  0  0  0
 11 18  1  0  0  0  0
 12 14  1  0  0  0  0
 14  2  1  6  0  0  0
 14 16  1  0  0  0  0
 16  9  1  1  0  0  0
 17  9  1  6  0  0  0
 17 11  1  0  0  0  0
 17 22  1  0  0  0  0
 18 19  1  6  0  0  0
 18 20  1  0  0  0  0
 19  3  1  0  0  0  0
 20 13  1  6  0  0  0
 20 21  1  0  0  0  0
 21 15  1  1  0  0  0
 21 22  1  0  0  0  0
 22  6  1  1  0  0  0
M  END
>  <CHROM.1>
77.29741259,30.49524606,62.38467744,27.21140118,1.70632012,8.11456211,1.01708824
-0.92305254,-0.50731729

>  <Name>
2fcx_lig

>  <RI>
2.63278e+07

>  <Rbt.Current_Directory>
/home/itssahil/PROJECTS/Mol_Feturizer/New_Systems/rnas/2fcx

>  <Rbt.Executable>
rbdock ($Id: //depot/dev/client3/rdock/2013.1/src/exe/rbdock.cxx#4 $)

>  <Rbt.Library>
libRbt.so (2013.1, Build901 2013/11/27)

>  <Rbt.Parameter_File>
/export/apps/rDock/src/rDock_2013.1_src/data/scripts/dock_solv.prm

>  <Rbt.Receptor>
prm/blind_docking_40.prm

>  <SCORE>
-8.84213

>  <SCORE.INTER>
-10.0863

>  <SCORE.INTER.CONST>
1

>  <SCORE.INTER.POLAR>
-0.938083

>  <SCORE.INTER.ROT>
3

>  <SCORE.INTER.SOLV>
11.6239

>  <SCORE.INTER.VDW>
-13.0719

>  <SCORE.INTER.norm>
-0.458468

>  <SCORE.INTRA>
1.24418

>  <SCORE.INTRA.DIHEDRAL>
0.0251041

>  <SCORE.INTRA.DIHEDRAL.0>
4.88619

>  <SCORE.INTRA.POLAR>
0

>  <SCORE.INTRA.POLAR.0>
0

>  <SCORE.INTRA.REPUL>
0

>  <SCORE.INTRA.REPUL.0>
0

>  <SCORE.INTRA.SOLV>
0.641984

>  <SCORE.INTRA.SOLV.lig_0>
-73.8187

>  <SCORE.INTRA.VDW>
0.910632

>  <SCORE.INTRA.VDW.0>
-1.32335

>  <SCORE.INTRA.norm>
0.0565535

>  <SCORE.RESTR>
0

>  <SCORE.RESTR.CAVITY>
0

>  <SCORE.RESTR.norm>
0

>  <SCORE.SYSTEM>
0

>  <SCORE.SYSTEM.CONST>
0

>  <SCORE.SYSTEM.DIHEDRAL>
0

>  <SCORE.SYSTEM.SOLV>
0

>  <SCORE.SYSTEM.norm>
0

>  <SCORE.heavy>
22

>  <SCORE.norm>
-0.401915

>  <RMSD>
11.264

$$$$
2fcx_lig
 OpenBabel11021811433D
libRbt.so/2013.1/901 2013/11/27
 22 23  0  0  0  0  0  0  0  0999 V2000
   29.0789    6.3212    6.7179 N   0  0  0  0  0  0  0  0  0  0  0  0
   29.0074    1.4325    6.3048 N   0  0  0  0  0  0  0  0  0  0  0  0
   24.4364    2.5233    6.4166 N   0  0  0  0  0  0  0  0  0  0  0  0
   26.6348    3.6069    9.9549 O   0  0  0  0  0  0  0  0  0  0  0  0
   27.8095    3.6657    9.1412 C   0  0  2  0  0  0  0  0  0  0  0  0
   27.9031   -1.1606   10.5000 N   0  0  0  0  0  0  0  0  0  0  0  0
   27.9527    6.0509    9.3617 O   0  0  0  0  0  0  0  0  0  0  0  0
   27.8604    4.9998    8.3929 C   0  0  1  0  0  0  0  0  0  0  0  0
   27.9755    1.2448    8.9350 O   0  0  0  0  0  0  0  0  0  0  0  0
   29.0743    5.0534    7.4624 C   0  0  1  0  0  0  0  0  0  0  0  0
   25.6437    1.2029    8.7050 O   0  0  0  0  0  0  0  0  0  0  0  0
   29.0431    3.8872    6.4688 C   0  0  0  0  0  0  0  0  0  0  0  0
   25.7324   -1.4929    6.1739 O   0  0  0  0  0  0  0  0  0  0  0  0
   29.0402    2.5650    7.2411 C   0  0  1  0  0  0  0  0  0  0  0  0
   26.7642   -2.8204    8.4549 O   0  0  0  0  0  0  0  0  0  0  0  0
   27.8402    2.4651    8.1876 C   0  0  2  0  0  0  0  0  0  0  0  0
   26.7475    0.8009    9.5372 C   0  0  1  0  0  0  0  0  0  0  0  0
   25.6531    0.6105    7.3905 C   0  0  2  0  0  0  0  0  0  0  0  0
   24.4296    1.0631    6.5906 C   0  0  0  0  0  0  0  0  0  0  0  0
   25.6319   -0.9179    7.4803 C   0  0  2  0  0  0  0  0  0  0  0  0
   26.8180   -1.3992    8.3177 C   0  0  1  0  0  0  0  0  0  0  0  0
   26.7570   -0.7249    9.6908 C   0  0  1  0  0  0  0  0  0  0  0  0
  5  4  1  6  0  0  0
  5  8  1  0  0  0  0
  5 16  1  0  0  0  0
  8  7  1  1  0  0  0
  8 10  1  0  0  0  0
 10  1  1  6  0  0  0
 10 12  1  0  0  0  0
 11 18  1  0  0  0  0
 12 14  1  0  0  0  0
 14  2  1  6  0  0  0
 14 16  1  0  0  0  0
 16  9  1  1  0  0  0
 17  9  1  6  0  0  0
 17 11  1  0  0  0  0
 17 22  1  0  0  0  0
 18 19  1  6  0  0  0
 18 20  1  0  0  0  0
 19  3  1  0  0  0  0
 20 13  1  6  0  0  0
 20 21  1  0  0  0  0
 21 15  1  1  0  0  0
 21 22  1  0  0  0  0
 22  6  1  1  0  0  0
M  END
>  <CHROM.1>
78.40966283,31.32721043,61.14637632,27.15442129,1.75546478,8.07814881,0.97870923
-0.94474576,-0.53161391

>  <Name>
2fcx_lig

>  <RI>
224

>  <Rbt.Current_Directory>
/home/itssahil/PROJECTS/Mol_Feturizer/New_Systems/rnas/2fcx

>  <Rbt.Executable>
rbdock ($Id: //depot/dev/client3/rdock/2013.1/src/exe/rbdock.cxx#4 $)

>  <Rbt.Library>
libRbt.so (2013.1, Build901 2013/11/27)

>  <Rbt.Parameter_File>
/export/apps/rDock/src/rDock_2013.1_src/data/scripts/dock_solv.prm

>  <Rbt.Receptor>
prm/blind_docking_60.prm

>  <SCORE>
-9.01528

>  <SCORE.INTER>
-10.1215

>  <SCORE.INTER.CONST>
1

>  <SCORE.INTER.POLAR>
-0.938083

>  <SCORE.INTER.ROT>
3

>  <SCORE.INTER.SOLV>
11.7911

>  <SCORE.INTER.VDW>
-13.1511

>  <SCORE.INTER.norm>
-0.46007

>  <SCORE.INTRA>
1.10626

>  <SCORE.INTRA.DIHEDRAL>
0.0220668

>  <SCORE.INTRA.DIHEDRAL.0>
4.88619

>  <SCORE.INTRA.POLAR>
0

>  <SCORE.INTRA.POLAR.0>
0

>  <SCORE.INTRA.REPUL>
0

>  <SCORE.INTRA.REPUL.0>
0

>  <SCORE.INTRA.SOLV>
0.639962

>  <SCORE.INTRA.SOLV.lig_0>
-73.8187

>  <SCORE.INTRA.VDW>
0.775249

>  <SCORE.INTRA.VDW.0>
-1.32335

>  <SCORE.INTRA.norm>
0.0502847

>  <SCORE.RESTR>
0

>  <SCORE.RESTR.CAVITY>
0

>  <SCORE.RESTR.norm>
0

>  <SCORE.SYSTEM>
0

>  <SCORE.SYSTEM.CONST>
0

>  <SCORE.SYSTEM.DIHEDRAL>
0

>  <SCORE.SYSTEM.SOLV>
0

>  <SCORE.SYSTEM.norm>
0

>  <SCORE.heavy>
22

>  <SCORE.norm>
-0.409785

>  <RMSD>
11.265

$$$$
2fcx_lig
 OpenBabel11021811433D
libRbt.so/2013.1/901 2013/11/27
 22 23  0  0  0  0  0  0  0  0999 V2000
   24.1876    4.0134    4.7000 N   0  0  0  0  0  0  0  0  0  0  0  0
   25.8901    1.3012    8.4175 N   0  0  0  0  0  0  0  0  0  0  0  0
   26.1843   -0.7666   10.3738 N   0  0  0  0  0  0  0  0  0  0  0  0
   28.7484    4.6356    6.3218 O   0  0  0  0  0  0  0  0  0  0  0  0
   27.7275    3.6655    6.0721 C   0  0  2  0  0  0  0  0  0  0  0  0
   31.1418    3.0657    8.5474 N   0  0  0  0  0  0  0  0  0  0  0  0
   26.8873    4.9002    4.1939 O   0  0  0  0  0  0  0  0  0  0  0  0
   26.5016    4.3441    5.4564 C   0  0  1  0  0  0  0  0  0  0  0  0
   28.5205    2.1561    7.8111 O   0  0  0  0  0  0  0  0  0  0  0  0
   25.3712    3.3339    5.2467 C   0  0  1  0  0  0  0  0  0  0  0  0
   28.1152    1.4469   10.0076 O   0  0  0  0  0  0  0  0  0  0  0  0
   24.9972    2.6614    6.5719 C   0  0  0  0  0  0  0  0  0  0  0  0
   30.2240   -1.5702    9.6449 O   0  0  0  0  0  0  0  0  0  0  0  0
   26.2276    1.9510    7.1432 C   0  0  1  0  0  0  0  0  0  0  0  0
   32.1382    0.4995    9.3575 O   0  0  0  0  0  0  0  0  0  0  0  0
   27.3881    2.9242    7.3710 C   0  0  2  0  0  0  0  0  0  0  0  0
   28.8587    2.3712    9.1921 C   0  0  1  0  0  0  0  0  0  0  0  0
   28.4251    0.0613    9.7563 C   0  0  2  0  0  0  0  0  0  0  0  0
   27.6186   -0.8452   10.6888 C   0  0  0  0  0  0  0  0  0  0  0  0
   29.9137   -0.2151    9.9840 C   0  0  2  0  0  0  0  0  0  0  0  0
   30.7489    0.7126    9.1000 C   0  0  1  0  0  0  0  0  0  0  0  0
   30.3630    2.1624    9.4051 C   0  0  1  0  0  0  0  0  0  0  0  0
  5  4  1  1  0  0  0
  5  8  1  0  0  0  0
  5 16  1  0  0  0  0
  8  7  1  6  0  0  0
  8 10  1  0  0  0  0
 10  1  1  1  0  0  0
 10 12  1  0  0  0  0
 11 18  1  0  0  0  0
 12 14  1  0  0  0  0
 14  2  1  1  0  0  0
 14 16  1  0  0  0  0
 16  9  1  6  0  0  0
 17  9  1  6  0  0  0
 17 11  1  0  0  0  0
 17 22  1  0  0  0  0
 18 19  1  1  0  0  0
 18 20  1  0  0  0  0
 19  3  1  0  0  0  0
 20 13  1  6  0  0  0
 20 21  1  0  0  0  0
 21 15  1  1  0  0  0
 21 22  1  0  0  0  0
 22  6  1  6  0  0  0
M  END
>  <CHROM.1>
129.86051429,88.62675952,66.70527543,28.04559876,1.94235540,7.97112076,2.15292798
-0.18082730,-0.73795940

>  <Name>
2fcx_lig

>  <RI>
2.63278e+07

>  <Rbt.Current_Directory>
/home/itssahil/PROJECTS/Mol_Feturizer/New_Systems/rnas/2fcx

>  <Rbt.Executable>
rbdock ($Id: //depot/dev/client3/rdock/2013.1/src/exe/rbdock.cxx#4 $)

>  <Rbt.Library>
libRbt.so (2013.1, Build901 2013/11/27)

>  <Rbt.Parameter_File>
/export/apps/rDock/src/rDock_2013.1_src/data/scripts/dock_solv.prm

>  <Rbt.Receptor>
prm/blind_docking_40.prm

>  <SCORE>
-4.85053

>  <SCORE.INTER>
-8.62449

>  <SCORE.INTER.CONST>
1

>  <SCORE.INTER.POLAR>
-1.72537

>  <SCORE.INTER.ROT>
3

>  <SCORE.INTER.SOLV>
17.3804

>  <SCORE.INTER.VDW>
-11.3919

>  <SCORE.INTER.norm>
-0.392022

>  <SCORE.INTRA>
3.77396

>  <SCORE.INTRA.DIHEDRAL>
5.34942

>  <SCORE.INTRA.DIHEDRAL.0>
4.88619

>  <SCORE.INTRA.POLAR>
0

>  <SCORE.INTRA.POLAR.0>
0

>  <SCORE.INTRA.REPUL>
0

>  <SCORE.INTRA.REPUL.0>
0

>  <SCORE.INTRA.SOLV>
4.0303

>  <SCORE.INTRA.SOLV.lig_0>
-73.8187

>  <SCORE.INTRA.VDW>
-0.915896

>  <SCORE.INTRA.VDW.0>
-1.32335

>  <SCORE.INTRA.norm>
0.171544

>  <SCORE.RESTR>
0

>  <SCORE.RESTR.CAVITY>
0

>  <SCORE.RESTR.norm>
0

>  <SCORE.SYSTEM>
0

>  <SCORE.SYSTEM.CONST>
0

>  <SCORE.SYSTEM.DIHEDRAL>
0

>  <SCORE.SYSTEM.SOLV>
0

>  <SCORE.SYSTEM.norm>
0

>  <SCORE.heavy>
22

>  <SCORE.norm>
-0.220479

>  <RMSD>
11.284

$$$$
2fcx_lig
 OpenBabel11021811433D
libRbt.so/2013.1/901 2013/11/27
 22 23  0  0  0  0  0  0  0  0999 V2000
   24.3148    3.9331    4.6278 N   0  0  0  0  0  0  0  0  0  0  0  0
   25.8851    1.0840    8.3008 N   0  0  0  0  0  0  0  0  0  0  0  0
   26.3033   -0.9209   10.5203 N   0  0  0  0  0  0  0  0  0  0  0  0
   28.7831    4.5491    6.4914 O   0  0  0  0  0  0  0  0  0  0  0  0
   27.7914    3.5764    6.1512 C   0  0  2  0  0  0  0  0  0  0  0  0
   31.1338    2.9970    8.5331 N   0  0  0  0  0  0  0  0  0  0  0  0
   27.0202    4.8807    4.2905 O   0  0  0  0  0  0  0  0  0  0  0  0
   26.5847    4.2636    5.5077 C   0  0  1  0  0  0  0  0  0  0  0  0
   28.5266    2.0031    7.8587 O   0  0  0  0  0  0  0  0  0  0  0  0
   25.4825    3.2474    5.2004 C   0  0  1  0  0  0  0  0  0  0  0  0
   28.1702    1.3410   10.0782 O   0  0  0  0  0  0  0  0  0  0  0  0
   25.0577    2.5114    6.4756 C   0  0  0  0  0  0  0  0  0  0  0  0
   30.3500   -1.6305    9.7618 O   0  0  0  0  0  0  0  0  0  0  0  0
   26.2714    1.7944    7.0736 C   0  0  1  0  0  0  0  0  0  0  0  0
   32.2065    0.4785    9.3938 O   0  0  0  0  0  0  0  0  0  0  0  0
   27.4035    2.7733    7.3988 C   0  0  2  0  0  0  0  0  0  0  0  0
   28.8784    2.2623    9.2286 C   0  0  1  0  0  0  0  0  0  0  0  0
   28.5117   -0.0424    9.8579 C   0  0  2  0  0  0  0  0  0  0  0  0
   27.7417   -0.9445   10.8249 C   0  0  0  0  0  0  0  0  0  0  0  0
   30.0100   -0.2753   10.0708 C   0  0  2  0  0  0  0  0  0  0  0  0
   30.8089    0.6499    9.1513 C   0  0  1  0  0  0  0  0  0  0  0  0
   30.3904    2.0969    9.4249 C   0  0  1  0  0  0  0  0  0  0  0  0
  5  4  1  1  0  0  0
  5  8  1  0  0  0  0
  5 16  1  0  0  0  0
  8  7  1  6  0  0  0
  8 10  1  0  0  0  0
 10  1  1  1  0  0  0
 10 12  1  0  0  0  0
 11 18  1  0  0  0  0
 12 14  1  0  0  0  0
 14  2  1  1  0  0  0
 14 16  1  0  0  0  0
 16  9  1  6  0  0  0
 17  9  1  6  0  0  0
 17 11  1  0  0  0  0
 17 22  1  0  0  0  0
 18 19  1  1  0  0  0
 18 20  1  0  0  0  0
 19  3  1  0  0  0  0
 20 13  1  6  0  0  0
 20 21  1  0  0  0  0
 21 15  1  1  0  0  0
 21 22  1  0  0  0  0
 22  6  1  6  0  0  0
M  END
>  <CHROM.1>
124.01080199,91.12253528,67.28819722,28.11172308,1.84411548,8.01227957,2.14452481
-0.19881239,-0.73735531

>  <Name>
2fcx_lig

>  <RI>
2.51704e+07

>  <Rbt.Current_Directory>
/home/itssahil/PROJECTS/Mol_Feturizer/New_Systems/rnas/2fcx

>  <Rbt.Executable>
rbdock ($Id: //depot/dev/client3/rdock/2013.1/src/exe/rbdock.cxx#4 $)

>  <Rbt.Library>
libRbt.so (2013.1, Build901 2013/11/27)

>  <Rbt.Parameter_File>
/export/apps/rDock/src/rDock_2013.1_src/data/scripts/dock_solv.prm

>  <Rbt.Receptor>
prm/blind_docking_80.prm

>  <SCORE>
-5.04669

>  <SCORE.INTER>
-8.92008

>  <SCORE.INTER.CONST>
1

>  <SCORE.INTER.POLAR>
-1.68784

>  <SCORE.INTER.ROT>
3

>  <SCORE.INTER.SOLV>
17.1566

>  <SCORE.INTER.VDW>
-11.6394

>  <SCORE.INTER.norm>
-0.405458

>  <SCORE.INTRA>
3.87339

>  <SCORE.INTRA.DIHEDRAL>
6.23792

>  <SCORE.INTRA.DIHEDRAL.0>
4.88619

>  <SCORE.INTRA.POLAR>
0

>  <SCORE.INTRA.POLAR.0>
0

>  <SCORE.INTRA.REPUL>
0

>  <SCORE.INTRA.REPUL.0>
0

>  <SCORE.INTRA.SOLV>
3.61711

>  <SCORE.INTRA.SOLV.lig_0>
-73.8187

>  <SCORE.INTRA.VDW>
-1.05412

>  <SCORE.INTRA.VDW.0>
-1.32335

>  <SCORE.INTRA.norm>
0.176063

>  <SCORE.RESTR>
0

>  <SCORE.RESTR.CAVITY>
0

>  <SCORE.RESTR.norm>
0

>  <SCORE.SYSTEM>
0

>  <SCORE.SYSTEM.CONST>
0

>  <SCORE.SYSTEM.DIHEDRAL>
0

>  <SCORE.SYSTEM.SOLV>
0

>  <SCORE.SYSTEM.norm>
0

>  <SCORE.heavy>
22

>  <SCORE.norm>
-0.229395

>  <RMSD>
11.325

$$$$
2fcx_lig
 OpenBabel11021811433D
libRbt.so/2013.1/901 2013/11/27
 22 23  0  0  0  0  0  0  0  0999 V2000
   24.1127    3.9752    4.6961 N   0  0  0  0  0  0  0  0  0  0  0  0
   25.8805    1.2446    8.3694 N   0  0  0  0  0  0  0  0  0  0  0  0
   27.6450   -2.2086   10.2842 N   0  0  0  0  0  0  0  0  0  0  0  0
   28.6539    4.6873    6.3358 O   0  0  0  0  0  0  0  0  0  0  0  0
   27.6588    3.6956    6.0679 C   0  0  2  0  0  0  0  0  0  0  0  0
   31.1271    3.0354    8.5190 N   0  0  0  0  0  0  0  0  0  0  0  0
   26.7891    4.9401    4.2097 O   0  0  0  0  0  0  0  0  0  0  0  0
   26.4164    4.3526    5.4619 C   0  0  1  0  0  0  0  0  0  0  0  0
   28.4886    2.1776    7.7821 O   0  0  0  0  0  0  0  0  0  0  0  0
   25.3129    3.3172    5.2330 C   0  0  1  0  0  0  0  0  0  0  0  0
   28.0657    1.4844    9.9803 O   0  0  0  0  0  0  0  0  0  0  0  0
   24.9548    2.6126    6.5459 C   0  0  0  0  0  0  0  0  0  0  0  0
   30.1122   -1.5768    9.6309 O   0  0  0  0  0  0  0  0  0  0  0  0
   26.2025    1.9247    7.1070 C   0  0  1  0  0  0  0  0  0  0  0  0
   32.0691    0.4520    9.3393 O   0  0  0  0  0  0  0  0  0  0  0  0
   27.3371    2.9235    7.3533 C   0  0  2  0  0  0  0  0  0  0  0  0
   28.8293    2.3904    9.1628 C   0  0  1  0  0  0  0  0  0  0  0  0
   28.3472    0.0919    9.7342 C   0  0  2  0  0  0  0  0  0  0  0  0
   27.5209   -0.7946   10.6686 C   0  0  0  0  0  0  0  0  0  0  0  0
   29.8295   -0.2145    9.9650 C   0  0  2  0  0  0  0  0  0  0  0  0
   30.6849    0.6928    9.0791 C   0  0  1  0  0  0  0  0  0  0  0  0
   30.3286    2.1513    9.3787 C   0  0  1  0  0  0  0  0  0  0  0  0
  5  4  1  1  0  0  0
  5  8  1  0  0  0  0
  5 16  1  0  0  0  0
  8  7  1  6  0  0  0
  8 10  1  0  0  0  0
 10  1  1  1  0  0  0
 10 12  1  0  0  0  0
 11 18  1  0  0  0  0
 12 14  1  0  0  0  0
 14  2  1  1  0  0  0
 14 16  1  0  0  0  0
 16  9  1  6  0  0  0
 17  9  1  6  0  0  0
 17 11  1  0  0  0  0
 17 22  1  0  0  0  0
 18 19  1  1  0  0  0
 18 20  1  0  0  0  0
 19  3  1  0  0  0  0
 20 13  1  6  0  0  0
 20 21  1  0  0  0  0
 21 15  1  1  0  0  0
 21 22  1  0  0  0  0
 22  6  1  6  0  0  0
M  END
>  <CHROM.1>
129.13764376,86.07616726,171.22190840,28.05300005,1.87726783,7.95061666,2.13967527
-0.24189628,-0.66954921

>  <Name>
2fcx_lig

>  <RI>
2.51704e+07

>  <Rbt.Current_Directory>
/home/itssahil/PROJECTS/Mol_Feturizer/New_Systems/rnas/2fcx

>  <Rbt.Executable>
rbdock ($Id: //depot/dev/client3/rdock/2013.1/src/exe/rbdock.cxx#4 $)

>  <Rbt.Library>
libRbt.so (2013.1, Build901 2013/11/27)

>  <Rbt.Parameter_File>
/export/apps/rDock/src/rDock_2013.1_src/data/scripts/dock_solv.prm

>  <Rbt.Receptor>
prm/blind_docking_80.prm

>  <SCORE>
-6.50658

>  <SCORE.INTER>
-10.253

>  <SCORE.INTER.CONST>
1

>  <SCORE.INTER.POLAR>
-1.72306

>  <SCORE.INTER.ROT>
3

>  <SCORE.INTER.SOLV>
12.4869

>  <SCORE.INTER.VDW>
-10.8541

>  <SCORE.INTER.norm>
-0.466047

>  <SCORE.INTRA>
3.74646

>  <SCORE.INTRA.DIHEDRAL>
5.05965

>  <SCORE.INTRA.DIHEDRAL.0>
4.88619

>  <SCORE.INTRA.POLAR>
0

>  <SCORE.INTRA.POLAR.0>
0

>  <SCORE.INTRA.REPUL>
0

>  <SCORE.INTRA.REPUL.0>
0

>  <SCORE.INTRA.SOLV>
3.35668

>  <SCORE.INTRA.SOLV.lig_0>
-73.8187

>  <SCORE.INTRA.VDW>
-0.461702

>  <SCORE.INTRA.VDW.0>
-1.32335

>  <SCORE.INTRA.norm>
0.170294

>  <SCORE.RESTR>
0

>  <SCORE.RESTR.CAVITY>
0

>  <SCORE.RESTR.norm>
0

>  <SCORE.SYSTEM>
0

>  <SCORE.SYSTEM.CONST>
0

>  <SCORE.SYSTEM.DIHEDRAL>
0

>  <SCORE.SYSTEM.SOLV>
0

>  <SCORE.SYSTEM.norm>
0

>  <SCORE.heavy>
22

>  <SCORE.norm>
-0.295753

>  <RMSD>
11.327

$$$$
2fcx_lig
 OpenBabel11021811433D
libRbt.so/2013.1/901 2013/11/27
 22 23  0  0  0  0  0  0  0  0999 V2000
   31.6328   -2.3020   10.2635 N   0  0  0  0  0  0  0  0  0  0  0  0
   30.2042    1.1204    7.0509 N   0  0  0  0  0  0  0  0  0  0  0  0
   29.5937    5.1987   10.1653 N   0  0  0  0  0  0  0  0  0  0  0  0
   27.7766    0.5301   11.2268 O   0  0  0  0  0  0  0  0  0  0  0  0
   28.4798   -0.1600   10.1901 C   0  0  2  0  0  0  0  0  0  0  0  0
   24.9008    1.3998    8.2168 N   0  0  0  0  0  0  0  0  0  0  0  0
   29.1526   -1.9106   11.6870 O   0  0  0  0  0  0  0  0  0  0  0  0
   29.6655   -0.9250   10.7828 C   0  0  1  0  0  0  0  0  0  0  0  0
   27.7614    1.3927    8.4568 O   0  0  0  0  0  0  0  0  0  0  0  0
   30.4725   -1.6133    9.6796 C   0  0  1  0  0  0  0  0  0  0  0  0
   27.6971    3.4036    9.6586 O   0  0  0  0  0  0  0  0  0  0  0  0
   30.9618   -0.5883    8.6509 C   0  0  0  0  0  0  0  0  0  0  0  0
   27.0764    5.4359    6.6311 O   0  0  0  0  0  0  0  0  0  0  0  0
   29.7554    0.1296    8.0393 C   0  0  1  0  0  0  0  0  0  0  0  0
   24.7244    3.8599    6.7501 O   0  0  0  0  0  0  0  0  0  0  0  0
   28.9154    0.8355    9.1079 C   0  0  2  0  0  0  0  0  0  0  0  0
   26.9573    2.2163    9.3188 C   0  0  1  0  0  0  0  0  0  0  0  0
   28.0152    4.2408    8.5286 C   0  0  2  0  0  0  0  0  0  0  0  0
   28.7673    5.4929    8.9851 C   0  0  0  0  0  0  0  0  0  0  0  0
   26.7426    4.6815    7.8003 C   0  0  2  0  0  0  0  0  0  0  0  0
   25.9425    3.4495    7.3741 C   0  0  1  0  0  0  0  0  0  0  0  0
   25.6506    2.5993    8.6133 C   0  0  1  0  0  0  0  0  0  0  0  0
  5  4  1  1  0  0  0
  5  8  1  0  0  0  0
  5 16  1  0  0  0  0
  8  7  1  1  0  0  0
  8 10  1  0  0  0  0
 10  1  1  1  0  0  0
 10 12  1  0  0  0  0
 11 18  1  0  0  0  0
 12 14  1  0  0  0  0
 14  2  1  6  0  0  0
 14 16  1  0  0  0  0
 16  9  1  6  0  0  0
 17  9  1  6  0  0  0
 17 11  1  0  0  0  0
 17 22  1  0  0  0  0
 18 19  1  1  0  0  0
 18 20  1  0  0  0  0
 19  3  1  0  0  0  0
 20 13  1  6  0  0  0
 20 21  1  0  0  0  0
 21 15  1  1  0  0  0
 21 22  1  0  0  0  0
 22  6  1  6  0  0  0
M  END
>  <CHROM.1>
66.22188274,67.60365896,31.93042677,28.19262886,1.77023330,8.96729774,-1.03590613
-0.16520208,-0.29857365

>  <Name>
2fcx_lig

>  <RI>
224

>  <Rbt.Current_Directory>
/home/itssahil/PROJECTS/Mol_Feturizer/New_Systems/rnas/2fcx

>  <Rbt.Executable>
rbdock ($Id: //depot/dev/client3/rdock/2013.1/src/exe/rbdock.cxx#4 $)

>  <Rbt.Library>
libRbt.so (2013.1, Build901 2013/11/27)

>  <Rbt.Parameter_File>
/export/apps/rDock/src/rDock_2013.1_src/data/scripts/dock_solv.prm

>  <Rbt.Receptor>
prm/blind_docking_60.prm

>  <SCORE>
-11.4482

>  <SCORE.INTER>
-10.9929

>  <SCORE.INTER.CONST>
1

>  <SCORE.INTER.POLAR>
-3.15915

>  <SCORE.INTER.ROT>
3

>  <SCORE.INTER.SOLV>
18.2548

>  <SCORE.INTER.VDW>
-8.48302

>  <SCORE.INTER.norm>
-0.499676

>  <SCORE.INTRA>
-0.455356

>  <SCORE.INTRA.DIHEDRAL>
-2.02879

>  <SCORE.INTRA.DIHEDRAL.0>
4.88619

>  <SCORE.INTRA.POLAR>
0

>  <SCORE.INTRA.POLAR.0>
0

>  <SCORE.INTRA.REPUL>
0

>  <SCORE.INTRA.REPUL.0>
0

>  <SCORE.INTRA.SOLV>
-0.631695

>  <SCORE.INTRA.SOLV.lig_0>
-73.8187

>  <SCORE.INTRA.VDW>
0.874884

>  <SCORE.INTRA.VDW.0>
-1.32335

>  <SCORE.INTRA.norm>
-0.020698

>  <SCORE.RESTR>
0

>  <SCORE.RESTR.CAVITY>
0

>  <SCORE.RESTR.norm>
0

>  <SCORE.SYSTEM>
0

>  <SCORE.SYSTEM.CONST>
0

>  <SCORE.SYSTEM.DIHEDRAL>
0

>  <SCORE.SYSTEM.SOLV>
0

>  <SCORE.SYSTEM.norm>
0

>  <SCORE.heavy>
22

>  <SCORE.norm>
-0.520374

>  <RMSD>
11.369

$$$$
2fcx_lig
 OpenBabel11021811433D
libRbt.so/2013.1/901 2013/11/27
 22 23  0  0  0  0  0  0  0  0999 V2000
   29.3778   -3.4320    9.5094 N   0  0  0  0  0  0  0  0  0  0  0  0
   26.2277    0.2994    9.0316 N   0  0  0  0  0  0  0  0  0  0  0  0
   24.3284    1.4234    7.4725 N   0  0  0  0  0  0  0  0  0  0  0  0
   31.0185    1.1480    9.1209 O   0  0  0  0  0  0  0  0  0  0  0  0
   29.9783    0.3298    9.6632 C   0  0  2  0  0  0  0  0  0  0  0  0
   29.4462    4.7308    9.9814 N   0  0  0  0  0  0  0  0  0  0  0  0
   31.4782   -1.5133    9.9974 O   0  0  0  0  0  0  0  0  0  0  0  0
   30.2551   -1.1426    9.3503 C   0  0  1  0  0  0  0  0  0  0  0  0
   28.3250    2.1166    9.5943 O   0  0  0  0  0  0  0  0  0  0  0  0
   29.1168   -2.0286    9.8615 C   0  0  1  0  0  0  0  0  0  0  0  0
   27.0708    2.8898    7.7719 O   0  0  0  0  0  0  0  0  0  0  0  0
   27.7808   -1.5966    9.2476 C   0  0  0  0  0  0  0  0  0  0  0  0
   24.5968    4.5942    9.9296 O   0  0  0  0  0  0  0  0  0  0  0  0
   27.5049   -0.1357    9.6142 C   0  0  1  0  0  0  0  0  0  0  0  0
   26.9553    6.0561   10.5043 O   0  0  0  0  0  0  0  0  0  0  0  0
   28.6199    0.7916    9.1216 C   0  0  2  0  0  0  0  0  0  0  0  0
   28.2656    3.1002    8.5470 C   0  0  1  0  0  0  0  0  0  0  0  0
   25.8490    3.0613    8.5180 C   0  0  2  0  0  0  0  0  0  0  0  0
   24.6342    2.8552    7.6105 C   0  0  0  0  0  0  0  0  0  0  0  0
   25.7689    4.4673    9.1187 C   0  0  2  0  0  0  0  0  0  0  0  0
   26.9974    4.7222    9.9937 C   0  0  1  0  0  0  0  0  0  0  0  0
   28.2562    4.5108    9.1484 C   0  0  1  0  0  0  0  0  0  0  0  0
  5  4  1  6  0  0  0
  5  8  1  0  0  0  0
  5 16  1  0  0  0  0
  8  7  1  1  0  0  0
  8 10  1  0  0  0  0
 10  1  1  6  0  0  0
 10 12  1  0  0  0  0
 11 18  1  0  0  0  0
 12 14  1  0  0  0  0
 14  2  1  6  0  0  0
 14 16  1  0  0  0  0
 16  9  1  1  0  0  0
 17  9  1  1  0  0  0
 17 11  1  0  0  0  0
 17 22  1  0  0  0  0
 18 19  1  6  0  0  0
 18 20  1  0  0  0  0
 19  3  1  0  0  0  0
 20 13  1  1  0  0  0
 20 21  1  0  0  0  0
 21 15  1  6  0  0  0
 21 22  1  0  0  0  0
 22  6  1  1  0  0  0
M  END
>  <CHROM.1>
114.90938686,71.71725143,82.71254652,27.81983636,1.72354899,9.22186379,0.98768104
0.26823966,-3.02794774

>  <Name>
2fcx_lig

>  <RI>
224

>  <Rbt.Current_Directory>
/home/itssahil/PROJECTS/Mol_Feturizer/New_Systems/rnas/2fcx

>  <Rbt.Executable>
rbdock ($Id: //depot/dev/client3/rdock/2013.1/src/exe/rbdock.cxx#4 $)

>  <Rbt.Library>
libRbt.so (2013.1, Build901 2013/11/27)

>  <Rbt.Parameter_File>
/export/apps/rDock/src/rDock_2013.1_src/data/scripts/dock_solv.prm

>  <Rbt.Receptor>
prm/blind_docking_60.prm

>  <SCORE>
-12.0411

>  <SCORE.INTER>
-15.6385

>  <SCORE.INTER.CONST>
1

>  <SCORE.INTER.POLAR>
-3.14268

>  <SCORE.INTER.ROT>
3

>  <SCORE.INTER.SOLV>
16.7315

>  <SCORE.INTER.VDW>
-11.1272

>  <SCORE.INTER.norm>
-0.710841

>  <SCORE.INTRA>
3.58425

>  <SCORE.INTRA.DIHEDRAL>
4.49369

>  <SCORE.INTRA.DIHEDRAL.0>
4.88619

>  <SCORE.INTRA.POLAR>
0

>  <SCORE.INTRA.POLAR.0>
0

>  <SCORE.INTRA.REPUL>
0

>  <SCORE.INTRA.REPUL.0>
0

>  <SCORE.INTRA.SOLV>
4.01451

>  <SCORE.INTRA.SOLV.lig_0>
-73.8187

>  <SCORE.INTRA.VDW>
-0.66985

>  <SCORE.INTRA.VDW.0>
-1.32335

>  <SCORE.INTRA.norm>
0.162921

>  <SCORE.RESTR>
0.0131573

>  <SCORE.RESTR.CAVITY>
0.0131573

>  <SCORE.RESTR.norm>
0.000598061

>  <SCORE.SYSTEM>
0

>  <SCORE.SYSTEM.CONST>
0

>  <SCORE.SYSTEM.DIHEDRAL>
0

>  <SCORE.SYSTEM.SOLV>
0

>  <SCORE.SYSTEM.norm>
0

>  <SCORE.heavy>
22

>  <SCORE.norm>
-0.547323

>  <RMSD>
11.372

$$$$
2fcx_lig
 OpenBabel11021811433D
libRbt.so/2013.1/901 2013/11/27
 22 23  0  0  0  0  0  0  0  0999 V2000
   29.3224   -1.9771   11.1909 N   0  0  0  0  0  0  0  0  0  0  0  0
   30.4278    2.2458    8.9503 N   0  0  0  0  0  0  0  0  0  0  0  0
   28.5014    6.2516   10.3029 N   0  0  0  0  0  0  0  0  0  0  0  0
   25.8952    0.4874    8.7415 O   0  0  0  0  0  0  0  0  0  0  0  0
   27.2781    0.1228    8.7523 C   0  0  2  0  0  0  0  0  0  0  0  0
   26.8277    2.7139    4.9797 N   0  0  0  0  0  0  0  0  0  0  0  0
   26.8052   -1.9942    9.7786 O   0  0  0  0  0  0  0  0  0  0  0  0
   27.5676   -0.7928    9.9441 C   0  0  1  0  0  0  0  0  0  0  0  0
   27.9735    2.1196    7.5438 O   0  0  0  0  0  0  0  0  0  0  0  0
   29.0571   -1.1374   10.0135 C   0  0  1  0  0  0  0  0  0  0  0  0
   26.5433    3.6628    8.5758 O   0  0  0  0  0  0  0  0  0  0  0  0
   29.9013    0.1382   10.1055 C   0  0  0  0  0  0  0  0  0  0  0  0
   28.4947    6.5757    7.3975 O   0  0  0  0  0  0  0  0  0  0  0  0
   29.6288    1.0143    8.8795 C   0  0  1  0  0  0  0  0  0  0  0  0
   27.5654    5.4869    4.9519 O   0  0  0  0  0  0  0  0  0  0  0  0
   28.1472    1.3862    8.7677 C   0  0  2  0  0  0  0  0  0  0  0  0
   26.7013    2.7829    7.4474 C   0  0  1  0  0  0  0  0  0  0  0  0
   27.5172    4.7245    8.6336 C   0  0  2  0  0  0  0  0  0  0  0  0
   27.2527    5.6285    9.8396 C   0  0  0  0  0  0  0  0  0  0  0  0
   27.4646    5.5830    7.3669 C   0  0  2  0  0  0  0  0  0  0  0  0
   27.6767    4.6976    6.1378 C   0  0  1  0  0  0  0  0  0  0  0  0
   26.6233    3.5866    6.1437 C   0  0  1  0  0  0  0  0  0  0  0  0
  5  4  1  1  0  0  0
  5  8  1  0  0  0  0
  5 16  1  0  0  0  0
  8  7  1  6  0  0  0
  8 10  1  0  0  0  0
 10  1  1  1  0  0  0
 10 12  1  0  0  0  0
 11 18  1  0  0  0  0
 12 14  1  0  0  0  0
 14  2  1  1  0  0  0
 14 16  1  0  0  0  0
 16  9  1  6  0  0  0
 17  9  1  1  0  0  0
 17 11  1  0  0  0  0
 17 22  1  0  0  0  0
 18 19  1  1  0  0  0
 18 20  1  0  0  0  0
 19  3  1  0  0  0  0
 20 13  1  1  0  0  0
 20 21  1  0  0  0  0
 21 15  1  6  0  0  0
 21 22  1  0  0  0  0
 22  6  1  6  0  0  0
M  END
>  <CHROM.1>
72.48447116,56.94001156,152.12321139,27.84954153,2.44185809,8.36834008,-1.37071217
-1.01173235,-0.24854739

>  <Name>
2fcx_lig

>  <RI>
2.63278e+07

>  <Rbt.Current_Directory>
/home/itssahil/PROJECTS/Mol_Feturizer/New_Systems/rnas/2fcx

>  <Rbt.Executable>
rbdock ($Id: //depot/dev/client3/rdock/2013.1/src/exe/rbdock.cxx#4 $)

>  <Rbt.Library>
libRbt.so (2013.1, Build901 2013/11/27)

>  <Rbt.Parameter_File>
/export/apps/rDock/src/rDock_2013.1_src/data/scripts/dock_solv.prm

>  <Rbt.Receptor>
prm/blind_docking_40.prm

>  <SCORE>
-10.1328

>  <SCORE.INTER>
-9.48386

>  <SCORE.INTER.CONST>
1

>  <SCORE.INTER.POLAR>
-2.17543

>  <SCORE.INTER.ROT>
3

>  <SCORE.INTER.SOLV>
11.9717

>  <SCORE.INTER.VDW>
-8.66169

>  <SCORE.INTER.norm>
-0.431085

>  <SCORE.INTRA>
-0.648951

>  <SCORE.INTRA.DIHEDRAL>
-1.73787

>  <SCORE.INTRA.DIHEDRAL.0>
4.88619

>  <SCORE.INTRA.POLAR>
0

>  <SCORE.INTRA.POLAR.0>
0

>  <SCORE.INTRA.REPUL>
0

>  <SCORE.INTRA.REPUL.0>
0

>  <SCORE.INTRA.SOLV>
-0.154218

>  <SCORE.INTRA.SOLV.lig_0>
-73.8187

>  <SCORE.INTRA.VDW>
0.297091

>  <SCORE.INTRA.VDW.0>
-1.32335

>  <SCORE.INTRA.norm>
-0.0294978

>  <SCORE.RESTR>
0

>  <SCORE.RESTR.CAVITY>
0

>  <SCORE.RESTR.norm>
0

>  <SCORE.SYSTEM>
0

>  <SCORE.SYSTEM.CONST>
0

>  <SCORE.SYSTEM.DIHEDRAL>
0

>  <SCORE.SYSTEM.SOLV>
0

>  <SCORE.SYSTEM.norm>
0

>  <SCORE.heavy>
22

>  <SCORE.norm>
-0.460582

>  <RMSD>
11.396

$$$$
2fcx_lig
 OpenBabel11021811433D
libRbt.so/2013.1/901 2013/11/27
 22 23  0  0  0  0  0  0  0  0999 V2000
   29.0683    5.9307    9.9715 N   0  0  0  0  0  0  0  0  0  0  0  0
   25.6251    3.2348    7.7463 N   0  0  0  0  0  0  0  0  0  0  0  0
   27.8273    0.2417   10.7300 N   0  0  0  0  0  0  0  0  0  0  0  0
   30.2672    1.7755    7.7098 O   0  0  0  0  0  0  0  0  0  0  0  0
   29.4148    2.9226    7.6550 C   0  0  2  0  0  0  0  0  0  0  0  0
   27.1878    0.0008    4.2186 N   0  0  0  0  0  0  0  0  0  0  0  0
   31.0798    4.3210    8.6701 O   0  0  0  0  0  0  0  0  0  0  0  0
   29.7304    3.8640    8.8197 C   0  0  1  0  0  0  0  0  0  0  0  0
   27.6555    1.7496    6.4465 O   0  0  0  0  0  0  0  0  0  0  0  0
   28.7807    5.0642    8.8191 C   0  0  1  0  0  0  0  0  0  0  0  0
   28.3057   -0.0670    7.7765 O   0  0  0  0  0  0  0  0  0  0  0  0
   27.3230    4.5975    8.8927 C   0  0  0  0  0  0  0  0  0  0  0  0
   24.8252   -1.2142    8.2782 O   0  0  0  0  0  0  0  0  0  0  0  0
   27.0196    3.6961    7.6926 C   0  0  1  0  0  0  0  0  0  0  0  0
   25.1422   -1.5639    5.4840 O   0  0  0  0  0  0  0  0  0  0  0  0
   27.9471    2.4780    7.6509 C   0  0  2  0  0  0  0  0  0  0  0  0
   28.2148    0.4250    6.4267 C   0  0  1  0  0  0  0  0  0  0  0  0
   27.0321   -0.2068    8.4377 C   0  0  2  0  0  0  0  0  0  0  0  0
   27.2203   -0.7674    9.8491 C   0  0  0  0  0  0  0  0  0  0  0  0
   26.1147   -1.1550    7.6608 C   0  0  2  0  0  0  0  0  0  0  0  0
   25.9467   -0.6469    6.2279 C   0  0  1  0  0  0  0  0  0  0  0  0
   27.3312   -0.5077    5.5894 C   0  0  1  0  0  0  0  0  0  0  0  0
  5  4  1  1  0  0  0
  5  8  1  0  0  0  0
  5 16  1  0  0  0  0
  8  7  1  6  0  0  0
  8 10  1  0  0  0  0
 10  1  1  1  0  0  0
 10 12  1  0  0  0  0
 11 18  1  0  0  0  0
 12 14  1  0  0  0  0
 14  2  1  1  0  0  0
 14 16  1  0  0  0  0
 16  9  1  6  0  0  0
 17  9  1  1  0  0  0
 17 11  1  0  0  0  0
 17 22  1  0  0  0  0
 18 19  1  1  0  0  0
 18 20  1  0  0  0  0
 19  3  1  0  0  0  0
 20 13  1  1  0  0  0
 20 21  1  0  0  0  0
 21 15  1  6  0  0  0
 21 22  1  0  0  0  0
 22  6  1  6  0  0  0
M  END
>  <CHROM.1>
73.66295871,29.29310006,71.41054602,27.68978362,1.52433276,7.75593921,0.49878949
1.00338946,1.38032813

>  <Name>
2fcx_lig

>  <RI>
224

>  <Rbt.Current_Directory>
/home/itssahil/PROJECTS/Mol_Feturizer/New_Systems/rnas/2fcx

>  <Rbt.Executable>
rbdock ($Id: //depot/dev/client3/rdock/2013.1/src/exe/rbdock.cxx#4 $)

>  <Rbt.Library>
libRbt.so (2013.1, Build901 2013/11/27)

>  <Rbt.Parameter_File>
/export/apps/rDock/src/rDock_2013.1_src/data/scripts/dock_solv.prm

>  <Rbt.Receptor>
prm/blind_docking_60.prm

>  <SCORE>
-9.16186

>  <SCORE.INTER>
-10.8649

>  <SCORE.INTER.CONST>
1

>  <SCORE.INTER.POLAR>
-2.16109

>  <SCORE.INTER.ROT>
3

>  <SCORE.INTER.SOLV>
21.6515

>  <SCORE.INTER.VDW>
-12.8568

>  <SCORE.INTER.norm>
-0.493858

>  <SCORE.INTRA>
1.70302

>  <SCORE.INTRA.DIHEDRAL>
0.187035

>  <SCORE.INTRA.DIHEDRAL.0>
4.88619

>  <SCORE.INTRA.POLAR>
0

>  <SCORE.INTRA.POLAR.0>
0

>  <SCORE.INTRA.REPUL>
0

>  <SCORE.INTRA.REPUL.0>
0

>  <SCORE.INTRA.SOLV>
0.554661

>  <SCORE.INTRA.SOLV.lig_0>
-73.8187

>  <SCORE.INTRA.VDW>
1.33217

>  <SCORE.INTRA.VDW.0>
-1.32335

>  <SCORE.INTRA.norm>
0.0774099

>  <SCORE.RESTR>
0

>  <SCORE.RESTR.CAVITY>
0

>  <SCORE.RESTR.norm>
0

>  <SCORE.SYSTEM>
0

>  <SCORE.SYSTEM.CONST>
0

>  <SCORE.SYSTEM.DIHEDRAL>
0

>  <SCORE.SYSTEM.SOLV>
0

>  <SCORE.SYSTEM.norm>
0

>  <SCORE.heavy>
22

>  <SCORE.norm>
-0.416448

>  <RMSD>
11.396

$$$$
2fcx_lig
 OpenBabel11021811433D
libRbt.so/2013.1/901 2013/11/27
 22 23  0  0  0  0  0  0  0  0999 V2000
   29.5925   -1.6518   11.0965 N   0  0  0  0  0  0  0  0  0  0  0  0
   30.5252    2.4261    8.5323 N   0  0  0  0  0  0  0  0  0  0  0  0
   28.0000    5.3853   10.6282 N   0  0  0  0  0  0  0  0  0  0  0  0
   25.9780    0.7191    8.8308 O   0  0  0  0  0  0  0  0  0  0  0  0
   27.3532    0.3373    8.7376 C   0  0  2  0  0  0  0  0  0  0  0  0
   26.4541    2.7020    4.9543 N   0  0  0  0  0  0  0  0  0  0  0  0
   26.9578   -1.7134    9.9194 O   0  0  0  0  0  0  0  0  0  0  0  0
   27.7418   -0.5149    9.9481 C   0  0  1  0  0  0  0  0  0  0  0  0
   27.9527    2.2551    7.3615 O   0  0  0  0  0  0  0  0  0  0  0  0
   29.2286   -0.8749    9.9025 C   0  0  1  0  0  0  0  0  0  0  0  0
   26.8548    4.0381    8.4137 O   0  0  0  0  0  0  0  0  0  0  0  0
   30.0882    0.3925    9.8466 C   0  0  0  0  0  0  0  0  0  0  0  0
   28.8318    6.5927    6.6118 O   0  0  0  0  0  0  0  0  0  0  0  0
   29.7130    1.2032    8.6029 C   0  0  1  0  0  0  0  0  0  0  0  0
   27.4175    5.3641    4.4857 O   0  0  0  0  0  0  0  0  0  0  0  0
   28.2305    1.5880    8.6040 C   0  0  2  0  0  0  0  0  0  0  0  0
   26.7454    3.0358    7.3861 C   0  0  1  0  0  0  0  0  0  0  0  0
   27.9141    4.9912    8.1941 C   0  0  2  0  0  0  0  0  0  0  0  0
   27.9338    6.0366    9.3115 C   0  0  0  0  0  0  0  0  0  0  0  0
   27.7277    5.7165    6.8586 C   0  0  2  0  0  0  0  0  0  0  0  0
   27.6544    4.6928    5.7245 C   0  0  1  0  0  0  0  0  0  0  0  0
   26.5231    3.7058    6.0247 C   0  0  1  0  0  0  0  0  0  0  0  0
  5  4  1  1  0  0  0
  5  8  1  0  0  0  0
  5 16  1  0  0  0  0
  8  7  1  6  0  0  0
  8 10  1  0  0  0  0
 10  1  1  1  0  0  0
 10 12  1  0  0  0  0
 11 18  1  0  0  0  0
 12 14  1  0  0  0  0
 14  2  1  1  0  0  0
 14 16  1  0  0  0  0
 16  9  1  6  0  0  0
 17  9  1  6  0  0  0
 17 11  1  0  0  0  0
 17 22  1  0  0  0  0
 18 19  1  1  0  0  0
 18 20  1  0  0  0  0
 19  3  1  0  0  0  0
 20 13  1  6  0  0  0
 20 21  1  0  0  0  0
 21 15  1  6  0  0  0
 21 22  1  0  0  0  0
 22  6  1  6  0  0  0
M  END
>  <CHROM.1>
78.19891953,59.56177979,53.69422714,27.95185002,2.58256986,8.16445407,-1.35136260
-0.97118473,-0.32757030

>  <Name>
2fcx_lig

>  <RI>
224

>  <Rbt.Current_Directory>
/home/itssahil/PROJECTS/Mol_Feturizer/New_Systems/rnas/2fcx

>  <Rbt.Executable>
rbdock ($Id: //depot/dev/client3/rdock/2013.1/src/exe/rbdock.cxx#4 $)

>  <Rbt.Library>
libRbt.so (2013.1, Build901 2013/11/27)

>  <Rbt.Parameter_File>
/export/apps/rDock/src/rDock_2013.1_src/data/scripts/dock_solv.prm

>  <Rbt.Receptor>
prm/blind_docking_60.prm

>  <SCORE>
-10.5061

>  <SCORE.INTER>
-8.64399

>  <SCORE.INTER.CONST>
1

>  <SCORE.INTER.POLAR>
-1.89544

>  <SCORE.INTER.ROT>
3

>  <SCORE.INTER.SOLV>
11.9808

>  <SCORE.INTER.VDW>
-9.03812

>  <SCORE.INTER.norm>
-0.392909

>  <SCORE.INTRA>
-1.86214

>  <SCORE.INTRA.DIHEDRAL>
-3.21667

>  <SCORE.INTRA.DIHEDRAL.0>
4.88619

>  <SCORE.INTRA.POLAR>
0

>  <SCORE.INTRA.POLAR.0>
0

>  <SCORE.INTRA.REPUL>
0

>  <SCORE.INTRA.REPUL.0>
0

>  <SCORE.INTRA.SOLV>
-0.315652

>  <SCORE.INTRA.SOLV.lig_0>
-73.8187

>  <SCORE.INTRA.VDW>
-0.0959741

>  <SCORE.INTRA.VDW.0>
-1.32335

>  <SCORE.INTRA.norm>
-0.0846425

>  <SCORE.RESTR>
0

>  <SCORE.RESTR.CAVITY>
0

>  <SCORE.RESTR.norm>
0

>  <SCORE.SYSTEM>
0

>  <SCORE.SYSTEM.CONST>
0

>  <SCORE.SYSTEM.DIHEDRAL>
0

>  <SCORE.SYSTEM.SOLV>
0

>  <SCORE.SYSTEM.norm>
0

>  <SCORE.heavy>
22

>  <SCORE.norm>
-0.477551

>  <RMSD>
11.417

$$$$
2fcx_lig
 OpenBabel11021811433D
libRbt.so/2013.1/901 2013/11/27
 22 23  0  0  0  0  0  0  0  0999 V2000
   29.3758    5.5271    6.6952 N   0  0  0  0  0  0  0  0  0  0  0  0
   29.9364    0.6825    7.2341 N   0  0  0  0  0  0  0  0  0  0  0  0
   25.5581   -0.4132    5.8366 N   0  0  0  0  0  0  0  0  0  0  0  0
   26.2780    2.9789    9.4752 O   0  0  0  0  0  0  0  0  0  0  0  0
   27.6445    3.0993    9.0708 C   0  0  2  0  0  0  0  0  0  0  0  0
   27.7239   -0.4743   11.9746 N   0  0  0  0  0  0  0  0  0  0  0  0
   27.4663    5.4829    8.8592 O   0  0  0  0  0  0  0  0  0  0  0  0
   27.8078    4.2970    8.1320 C   0  0  1  0  0  0  0  0  0  0  0  0
   28.1115    0.7317    9.3986 O   0  0  0  0  0  0  0  0  0  0  0  0
   29.2505    4.4009    7.6320 C   0  0  1  0  0  0  0  0  0  0  0  0
   26.0043   -0.0157    8.6965 O   0  0  0  0  0  0  0  0  0  0  0  0
   29.6692    3.1085    6.9230 C   0  0  0  0  0  0  0  0  0  0  0  0
   27.1656   -3.4949    8.2193 O   0  0  0  0  0  0  0  0  0  0  0  0
   29.5417    1.9336    7.8967 C   0  0  1  0  0  0  0  0  0  0  0  0
   27.4822   -3.1683   11.0163 O   0  0  0  0  0  0  0  0  0  0  0  0
   28.1114    1.7891    8.4249 C   0  0  2  0  0  0  0  0  0  0  0  0
   26.7952    0.3573    9.8401 C   0  0  1  0  0  0  0  0  0  0  0  0
   26.5042   -1.1671    7.9870 C   0  0  2  0  0  0  0  0  0  0  0  0
   25.5858   -1.5126    6.8127 C   0  0  0  0  0  0  0  0  0  0  0  0
   26.5844   -2.3853    8.9110 C   0  0  2  0  0  0  0  0  0  0  0  0
   27.4576   -2.0539   10.1223 C   0  0  1  0  0  0  0  0  0  0  0  0
   26.8826   -0.8187   10.8205 C   0  0  1  0  0  0  0  0  0  0  0  0
  5  4  1  6  0  0  0
  5  8  1  0  0  0  0
  5 16  1  0  0  0  0
  8  7  1  1  0  0  0
  8 10  1  0  0  0  0
 10  1  1  6  0  0  0
 10 12  1  0  0  0  0
 11 18  1  0  0  0  0
 12 14  1  0  0  0  0
 14  2  1  6  0  0  0
 14 16  1  0  0  0  0
 16  9  1  1  0  0  0
 17  9  1  6  0  0  0
 17 11  1  0  0  0  0
 17 22  1  0  0  0  0
 18 19  1  6  0  0  0
 18 20  1  0  0  0  0
 19  3  1  0  0  0  0
 20 13  1  6  0  0  0
 20 21  1  0  0  0  0
 21 15  1  1  0  0  0
 21 22  1  0  0  0  0
 22  6  1  1  0  0  0
M  END
>  <CHROM.1>
67.99524493,56.52649829,62.86336387,27.56641399,0.83870539,8.65199995,0.34819143
-1.30075103,-1.43871387

>  <Name>
2fcx_lig

>  <RI>
2.63278e+07

>  <Rbt.Current_Directory>
/home/itssahil/PROJECTS/Mol_Feturizer/New_Systems/rnas/2fcx

>  <Rbt.Executable>
rbdock ($Id: //depot/dev/client3/rdock/2013.1/src/exe/rbdock.cxx#4 $)

>  <Rbt.Library>
libRbt.so (2013.1, Build901 2013/11/27)

>  <Rbt.Parameter_File>
/export/apps/rDock/src/rDock_2013.1_src/data/scripts/dock_solv.prm

>  <Rbt.Receptor>
prm/blind_docking_40.prm

>  <SCORE>
-6.46073

>  <SCORE.INTER>
-4.55152

>  <SCORE.INTER.CONST>
1

>  <SCORE.INTER.POLAR>
-1.18007

>  <SCORE.INTER.ROT>
3

>  <SCORE.INTER.SOLV>
17.5748

>  <SCORE.INTER.VDW>
-10.559

>  <SCORE.INTER.norm>
-0.206887

>  <SCORE.INTRA>
-1.99011

>  <SCORE.INTRA.DIHEDRAL>
-4.47926

>  <SCORE.INTRA.DIHEDRAL.0>
4.88619

>  <SCORE.INTRA.POLAR>
0

>  <SCORE.INTRA.POLAR.0>
0

>  <SCORE.INTRA.REPUL>
0

>  <SCORE.INTRA.REPUL.0>
0

>  <SCORE.INTRA.SOLV>
-0.782506

>  <SCORE.INTRA.SOLV.lig_0>
-73.8187

>  <SCORE.INTRA.VDW>
0.640768

>  <SCORE.INTRA.VDW.0>
-1.32335

>  <SCORE.INTRA.norm>
-0.0904598

>  <SCORE.RESTR>
0.080906

>  <SCORE.RESTR.CAVITY>
0.080906

>  <SCORE.RESTR.norm>
0.00367755

>  <SCORE.SYSTEM>
0

>  <SCORE.SYSTEM.CONST>
0

>  <SCORE.SYSTEM.DIHEDRAL>
0

>  <SCORE.SYSTEM.SOLV>
0

>  <SCORE.SYSTEM.norm>
0

>  <SCORE.heavy>
22

>  <SCORE.norm>
-0.293669

>  <RMSD>
11.426

$$$$
2fcx_lig
 OpenBabel11021811433D
libRbt.so/2013.1/901 2013/11/27
 22 23  0  0  0  0  0  0  0  0999 V2000
   31.6314   -3.0001   10.4616 N   0  0  0  0  0  0  0  0  0  0  0  0
   27.6460   -0.3885   11.6319 N   0  0  0  0  0  0  0  0  0  0  0  0
   26.2201   -0.3555    6.8353 N   0  0  0  0  0  0  0  0  0  0  0  0
   30.5266    1.0586    7.9867 O   0  0  0  0  0  0  0  0  0  0  0  0
   30.5158    0.4488    9.2803 C   0  0  2  0  0  0  0  0  0  0  0  0
   28.6867    4.6193   10.1945 N   0  0  0  0  0  0  0  0  0  0  0  0
   32.5071   -0.8036    8.8065 O   0  0  0  0  0  0  0  0  0  0  0  0
   31.1387   -0.9472    9.2051 C   0  0  1  0  0  0  0  0  0  0  0  0
   28.6087    1.7534   10.0497 O   0  0  0  0  0  0  0  0  0  0  0  0
   31.0726   -1.6443   10.5659 C   0  0  1  0  0  0  0  0  0  0  0  0
   27.7524    1.8553    7.8707 O   0  0  0  0  0  0  0  0  0  0  0  0
   29.6231   -1.7344   11.0550 C   0  0  0  0  0  0  0  0  0  0  0  0
   24.3581    2.7676    9.0230 O   0  0  0  0  0  0  0  0  0  0  0  0
   29.0386   -0.3235   11.1666 C   0  0  1  0  0  0  0  0  0  0  0  0
   25.8654    5.0183    9.8553 O   0  0  0  0  0  0  0  0  0  0  0  0
   29.0829    0.4151    9.8256 C   0  0  2  0  0  0  0  0  0  0  0  0
   28.5446    2.5480    8.8530 C   0  0  1  0  0  0  0  0  0  0  0  0
   26.3793    1.6521    8.2607 C   0  0  2  0  0  0  0  0  0  0  0  0
   25.6056    0.9436    7.1466 C   0  0  0  0  0  0  0  0  0  0  0  0
   25.6908    2.9885    8.5511 C   0  0  2  0  0  0  0  0  0  0  0  0
   26.4708    3.7441    9.6283 C   0  0  1  0  0  0  0  0  0  0  0  0
   27.9185    3.9139    9.1599 C   0  0  1  0  0  0  0  0  0  0  0  0
  5  4  1  6  0  0  0
  5  8  1  0  0  0  0
  5 16  1  0  0  0  0
  8  7  1  1  0  0  0
  8 10  1  0  0  0  0
 10  1  1  6  0  0  0
 10 12  1  0  0  0  0
 11 18  1  0  0  0  0
 12 14  1  0  0  0  0
 14  2  1  6  0  0  0
 14 16  1  0  0  0  0
 16  9  1  1  0  0  0
 17  9  1  1  0  0  0
 17 11  1  0  0  0  0
 17 22  1  0  0  0  0
 18 19  1  6  0  0  0
 18 20  1  0  0  0  0
 19  3  1  0  0  0  0
 20 13  1  1  0  0  0
 20 21  1  0  0  0  0
 21 15  1  6  0  0  0
 21 22  1  0  0  0  0
 22  6  1  1  0  0  0
M  END
>  <CHROM.1>
62.05373119,54.49253557,58.83235823,28.39276765,1.14139721,9.31773143,0.67872239
0.37497275,-2.93863795

>  <Name>
2fcx_lig

>  <RI>
2.63278e+07

>  <Rbt.Current_Directory>
/home/itssahil/PROJECTS/Mol_Feturizer/New_Systems/rnas/2fcx

>  <Rbt.Executable>
rbdock ($Id: //depot/dev/client3/rdock/2013.1/src/exe/rbdock.cxx#4 $)

>  <Rbt.Library>
libRbt.so (2013.1, Build901 2013/11/27)

>  <Rbt.Parameter_File>
/export/apps/rDock/src/rDock_2013.1_src/data/scripts/dock_solv.prm

>  <Rbt.Receptor>
prm/blind_docking_40.prm

>  <SCORE>
-16.5104

>  <SCORE.INTER>
-15.7004

>  <SCORE.INTER.CONST>
1

>  <SCORE.INTER.POLAR>
-2.98357

>  <SCORE.INTER.ROT>
3

>  <SCORE.INTER.SOLV>
18.5212

>  <SCORE.INTER.VDW>
-12.2954

>  <SCORE.INTER.norm>
-0.713653

>  <SCORE.INTRA>
-1.50424

>  <SCORE.INTRA.DIHEDRAL>
-4.70249

>  <SCORE.INTRA.DIHEDRAL.0>
4.88619

>  <SCORE.INTRA.POLAR>
0

>  <SCORE.INTRA.POLAR.0>
0

>  <SCORE.INTRA.REPUL>
0

>  <SCORE.INTRA.REPUL.0>
0

>  <SCORE.INTRA.SOLV>
-0.826645

>  <SCORE.INTRA.SOLV.lig_0>
-73.8187

>  <SCORE.INTRA.VDW>
1.26033

>  <SCORE.INTRA.VDW.0>
-1.32335

>  <SCORE.INTRA.norm>
-0.0683745

>  <SCORE.RESTR>
0.694186

>  <SCORE.RESTR.CAVITY>
0.694186

>  <SCORE.RESTR.norm>
0.0315539

>  <SCORE.SYSTEM>
0

>  <SCORE.SYSTEM.CONST>
0

>  <SCORE.SYSTEM.DIHEDRAL>
0

>  <SCORE.SYSTEM.SOLV>
0

>  <SCORE.SYSTEM.norm>
0

>  <SCORE.heavy>
22

>  <SCORE.norm>
-0.750474

>  <RMSD>
11.428

$$$$
2fcx_lig
 OpenBabel11021811433D
libRbt.so/2013.1/901 2013/11/27
 22 23  0  0  0  0  0  0  0  0999 V2000
   31.5078   -3.2306   10.3310 N   0  0  0  0  0  0  0  0  0  0  0  0
   27.8296   -0.2972   11.7240 N   0  0  0  0  0  0  0  0  0  0  0  0
   24.6666    0.4587    7.5114 N   0  0  0  0  0  0  0  0  0  0  0  0
   30.6325    0.9338    7.9413 O   0  0  0  0  0  0  0  0  0  0  0  0
   30.6358    0.3138    9.2302 C   0  0  2  0  0  0  0  0  0  0  0  0
   28.8489    4.6343   10.2918 N   0  0  0  0  0  0  0  0  0  0  0  0
   32.4838   -1.1007    8.6452 O   0  0  0  0  0  0  0  0  0  0  0  0
   31.1306   -1.1298    9.1141 C   0  0  1  0  0  0  0  0  0  0  0  0
   28.8912    1.7700   10.1061 O   0  0  0  0  0  0  0  0  0  0  0  0
   31.0747   -1.8327   10.4725 C   0  0  1  0  0  0  0  0  0  0  0  0
   28.0983    1.8695    7.9031 O   0  0  0  0  0  0  0  0  0  0  0  0
   29.6501   -1.8026   11.0363 C   0  0  0  0  0  0  0  0  0  0  0  0
   24.6364    2.6283    8.9617 O   0  0  0  0  0  0  0  0  0  0  0  0
   29.1966   -0.3478   11.1866 C   0  0  1  0  0  0  0  0  0  0  0  0
   26.0253    4.9250    9.8706 O   0  0  0  0  0  0  0  0  0  0  0  0
   29.2354    0.3982    9.8496 C   0  0  2  0  0  0  0  0  0  0  0  0
   28.8316    2.5789    8.9187 C   0  0  1  0  0  0  0  0  0  0  0  0
   26.7233    1.6059    8.2475 C   0  0  2  0  0  0  0  0  0  0  0  0
   26.0131    0.8835    7.1005 C   0  0  0  0  0  0  0  0  0  0  0  0
   25.9728    2.9093    8.5344 C   0  0  2  0  0  0  0  0  0  0  0  0
   26.6884    3.6796    9.6453 C   0  0  1  0  0  0  0  0  0  0  0  0
   28.1417    3.9139    9.2245 C   0  0  1  0  0  0  0  0  0  0  0  0
  5  4  1  6  0  0  0
  5  8  1  0  0  0  0
  5 16  1  0  0  0  0
  8  7  1  1  0  0  0
  8 10  1  0  0  0  0
 10  1  1  6  0  0  0
 10 12  1  0  0  0  0
 11 18  1  0  0  0  0
 12 14  1  0  0  0  0
 14  2  1  6  0  0  0
 14 16  1  0  0  0  0
 16  9  1  1  0  0  0
 17  9  1  1  0  0  0
 17 11  1  0  0  0  0
 17 22  1  0  0  0  0
 18 19  1  6  0  0  0
 18 20  1  0  0  0  0
 19  3  1  0  0  0  0
 20 13  1  1  0  0  0
 20 21  1  0  0  0  0
 21 15  1  6  0  0  0
 21 22  1  0  0  0  0
 22  6  1  1  0  0  0
M  END
>  <CHROM.1>
62.18435975,45.75263183,172.67294094,28.48617784,1.10494616,9.33646491,0.72696147
0.26909886,-3.06209875

>  <Name>
2fcx_lig

>  <RI>
2.63278e+07

>  <Rbt.Current_Directory>
/home/itssahil/PROJECTS/Mol_Feturizer/New_Systems/rnas/2fcx

>  <Rbt.Executable>
rbdock ($Id: //depot/dev/client3/rdock/2013.1/src/exe/rbdock.cxx#4 $)

>  <Rbt.Library>
libRbt.so (2013.1, Build901 2013/11/27)

>  <Rbt.Parameter_File>
/export/apps/rDock/src/rDock_2013.1_src/data/scripts/dock_solv.prm

>  <Rbt.Receptor>
prm/blind_docking_40.prm

>  <SCORE>
-18.8855

>  <SCORE.INTER>
-19.9702

>  <SCORE.INTER.CONST>
1

>  <SCORE.INTER.POLAR>
-4.24268

>  <SCORE.INTER.ROT>
3

>  <SCORE.INTER.SOLV>
22.5603

>  <SCORE.INTER.VDW>
-12.2913

>  <SCORE.INTER.norm>
-0.907737

>  <SCORE.INTRA>
0.238411

>  <SCORE.INTRA.DIHEDRAL>
-3.70288

>  <SCORE.INTRA.DIHEDRAL.0>
4.88619

>  <SCORE.INTRA.POLAR>
0

>  <SCORE.INTRA.POLAR.0>
0

>  <SCORE.INTRA.REPUL>
0

>  <SCORE.INTRA.REPUL.0>
0

>  <SCORE.INTRA.SOLV>
0.207025

>  <SCORE.INTRA.SOLV.lig_0>
-73.8187

>  <SCORE.INTRA.VDW>
1.98634

>  <SCORE.INTRA.VDW.0>
-1.32335

>  <SCORE.INTRA.norm>
0.0108368

>  <SCORE.RESTR>
0.846307

>  <SCORE.RESTR.CAVITY>
0.846307

>  <SCORE.RESTR.norm>
0.0384685

>  <SCORE.SYSTEM>
0

>  <SCORE.SYSTEM.CONST>
0

>  <SCORE.SYSTEM.DIHEDRAL>
0

>  <SCORE.SYSTEM.SOLV>
0

>  <SCORE.SYSTEM.norm>
0

>  <SCORE.heavy>
22

>  <SCORE.norm>
-0.858432

>  <RMSD>
11.475

$$$$
2fcx_lig
 OpenBabel11021811433D
libRbt.so/2013.1/901 2013/11/27
 22 23  0  0  0  0  0  0  0  0999 V2000
   26.0088    5.5904   11.0229 N   0  0  0  0  0  0  0  0  0  0  0  0
   24.6890    2.0274    7.9184 N   0  0  0  0  0  0  0  0  0  0  0  0
   27.2963   -0.3630   10.7823 N   0  0  0  0  0  0  0  0  0  0  0  0
   29.3996    3.0085    8.6447 O   0  0  0  0  0  0  0  0  0  0  0  0
   28.0993    3.5941    8.5368 C   0  0  2  0  0  0  0  0  0  0  0  0
   28.1335    0.7038    4.4487 N   0  0  0  0  0  0  0  0  0  0  0  0
   28.6972    5.4095    9.9878 O   0  0  0  0  0  0  0  0  0  0  0  0
   27.7548    4.3427    9.8266 C   0  0  1  0  0  0  0  0  0  0  0  0
   27.3305    1.9622    6.9007 O   0  0  0  0  0  0  0  0  0  0  0  0
   26.3381    4.9174    9.7578 C   0  0  1  0  0  0  0  0  0  0  0  0
   28.2385    0.1942    8.1422 O   0  0  0  0  0  0  0  0  0  0  0  0
   25.3171    3.8040    9.5004 C   0  0  0  0  0  0  0  0  0  0  0  0
   25.4253   -2.0762    7.3598 O   0  0  0  0  0  0  0  0  0  0  0  0
   25.6561    3.1021    8.1824 C   0  0  1  0  0  0  0  0  0  0  0  0
   26.5584   -1.6697    4.7945 O   0  0  0  0  0  0  0  0  0  0  0  0
   27.0680    2.5090    8.2038 C   0  0  2  0  0  0  0  0  0  0  0  0
   28.3240    0.9226    6.9035 C   0  0  1  0  0  0  0  0  0  0  0  0
   26.9824   -0.4860    8.3381 C   0  0  2  0  0  0  0  0  0  0  0  0
   26.9932   -1.2608    9.6577 C   0  0  0  0  0  0  0  0  0  0  0  0
   26.7140   -1.4751    7.2006 C   0  0  2  0  0  0  0  0  0  0  0  0
   26.7461   -0.7375    5.8610 C   0  0  1  0  0  0  0  0  0  0  0  0
   28.0956   -0.0280    5.7219 C   0  0  1  0  0  0  0  0  0  0  0  0
  5  4  1  1  0  0  0
  5  8  1  0  0  0  0
  5 16  1  0  0  0  0
  8  7  1  6  0  0  0
  8 10  1  0  0  0  0
 10  1  1  1  0  0  0
 10 12  1  0  0  0  0
 11 18  1  0  0  0  0
 12 14  1  0  0  0  0
 14  2  1  1  0  0  0
 14 16  1  0  0  0  0
 16  9  1  6  0  0  0
 17  9  1  1  0  0  0
 17 11  1  0  0  0  0
 17 22  1  0  0  0  0
 18 19  1  1  0  0  0
 18 20  1  0  0  0  0
 19  3  1  0  0  0  0
 20 13  1  1  0  0  0
 20 21  1  0  0  0  0
 21 15  1  6  0  0  0
 21 22  1  0  0  0  0
 22  6  1  6  0  0  0
M  END
>  <CHROM.1>
83.96389036,32.73802217,56.28198748,27.10189688,1.52550006,8.06734776,1.50901758
1.02032040,0.59376250

>  <Name>
2fcx_lig

>  <RI>
2.63278e+07

>  <Rbt.Current_Directory>
/home/itssahil/PROJECTS/Mol_Feturizer/New_Systems/rnas/2fcx

>  <Rbt.Executable>
rbdock ($Id: //depot/dev/client3/rdock/2013.1/src/exe/rbdock.cxx#4 $)

>  <Rbt.Library>
libRbt.so (2013.1, Build901 2013/11/27)

>  <Rbt.Parameter_File>
/export/apps/rDock/src/rDock_2013.1_src/data/scripts/dock_solv.prm

>  <Rbt.Receptor>
prm/blind_docking_40.prm

>  <SCORE>
-10.5663

>  <SCORE.INTER>
-11.938

>  <SCORE.INTER.CONST>
1

>  <SCORE.INTER.POLAR>
-2.05595

>  <SCORE.INTER.ROT>
3

>  <SCORE.INTER.SOLV>
18.394

>  <SCORE.INTER.VDW>
-12.8368

>  <SCORE.INTER.norm>
-0.542635

>  <SCORE.INTRA>
1.36115

>  <SCORE.INTRA.DIHEDRAL>
0.739448

>  <SCORE.INTRA.DIHEDRAL.0>
4.88619

>  <SCORE.INTRA.POLAR>
0

>  <SCORE.INTRA.POLAR.0>
0

>  <SCORE.INTRA.REPUL>
0

>  <SCORE.INTRA.REPUL.0>
0

>  <SCORE.INTRA.SOLV>
1.09835

>  <SCORE.INTRA.SOLV.lig_0>
-73.8187

>  <SCORE.INTRA.VDW>
0.44225

>  <SCORE.INTRA.VDW.0>
-1.32335

>  <SCORE.INTRA.norm>
0.0618704

>  <SCORE.RESTR>
0.0104796

>  <SCORE.RESTR.CAVITY>
0.0104796

>  <SCORE.RESTR.norm>
0.000476346

>  <SCORE.SYSTEM>
0

>  <SCORE.SYSTEM.CONST>
0

>  <SCORE.SYSTEM.DIHEDRAL>
0

>  <SCORE.SYSTEM.SOLV>
0

>  <SCORE.SYSTEM.norm>
0

>  <SCORE.heavy>
22

>  <SCORE.norm>
-0.480288

>  <RMSD>
11.529

$$$$
2fcx_lig
 OpenBabel11021811433D
libRbt.so/2013.1/901 2013/11/27
 22 23  0  0  0  0  0  0  0  0999 V2000
   28.2976    5.8912    5.7805 N   0  0  0  0  0  0  0  0  0  0  0  0
   29.5216    3.2638    9.7395 N   0  0  0  0  0  0  0  0  0  0  0  0
   25.9931   -0.6362    5.0603 N   0  0  0  0  0  0  0  0  0  0  0  0
   28.3661    1.0153    5.5814 O   0  0  0  0  0  0  0  0  0  0  0  0
   28.0615    2.1388    6.4123 C   0  0  2  0  0  0  0  0  0  0  0  0
   27.7851    0.5258   11.2209 N   0  0  0  0  0  0  0  0  0  0  0  0
   27.3740    3.4591    4.5303 O   0  0  0  0  0  0  0  0  0  0  0  0
   28.2848    3.4386    5.6357 C   0  0  1  0  0  0  0  0  0  0  0  0
   28.5245    0.9334    8.4772 O   0  0  0  0  0  0  0  0  0  0  0  0
   28.0317    4.6545    6.5299 C   0  0  1  0  0  0  0  0  0  0  0  0
   26.3429    0.4341    7.7822 O   0  0  0  0  0  0  0  0  0  0  0  0
   28.9364    4.6116    7.7661 C   0  0  0  0  0  0  0  0  0  0  0  0
   26.7929   -3.2033    8.2802 O   0  0  0  0  0  0  0  0  0  0  0  0
   28.6605    3.3255    8.5500 C   0  0  1  0  0  0  0  0  0  0  0  0
   27.0439   -2.2311   10.9301 O   0  0  0  0  0  0  0  0  0  0  0  0
   28.9012    2.0784    7.6942 C   0  0  2  0  0  0  0  0  0  0  0  0
   27.1412    0.9361    8.8699 C   0  0  1  0  0  0  0  0  0  0  0  0
   26.6295   -0.9332    7.4256 C   0  0  2  0  0  0  0  0  0  0  0  0
   25.7135   -1.3934    6.2895 C   0  0  0  0  0  0  0  0  0  0  0  0
   26.4191   -1.8650    8.6221 C   0  0  2  0  0  0  0  0  0  0  0  0
   27.2864   -1.4003    9.7932 C   0  0  1  0  0  0  0  0  0  0  0  0
   26.9439    0.0576   10.1113 C   0  0  1  0  0  0  0  0  0  0  0  0
  5  4  1  6  0  0  0
  5  8  1  0  0  0  0
  5 16  1  0  0  0  0
  8  7  1  6  0  0  0
  8 10  1  0  0  0  0
 10  1  1  6  0  0  0
 10 12  1  0  0  0  0
 11 18  1  0  0  0  0
 12 14  1  0  0  0  0
 14  2  1  1  0  0  0
 14 16  1  0  0  0  0
 16  9  1  1  0  0  0
 17  9  1  6  0  0  0
 17 11  1  0  0  0  0
 17 22  1  0  0  0  0
 18 19  1  6  0  0  0
 18 20  1  0  0  0  0
 19  3  1  0  0  0  0
 20 13  1  6  0  0  0
 20 21  1  0  0  0  0
 21 15  1  1  0  0  0
 21 22  1  0  0  0  0
 22  6  1  1  0  0  0
M  END
>  <CHROM.1>
-59.60467125,82.11096807,65.26950293,27.58469441,1.09641683,7.76347236,-0.96307574
1.13480554,2.14545382

>  <Name>
2fcx_lig

>  <RI>
2.63278e+07

>  <Rbt.Current_Directory>
/home/itssahil/PROJECTS/Mol_Feturizer/New_Systems/rnas/2fcx

>  <Rbt.Executable>
rbdock ($Id: //depot/dev/client3/rdock/2013.1/src/exe/rbdock.cxx#4 $)

>  <Rbt.Library>
libRbt.so (2013.1, Build901 2013/11/27)

>  <Rbt.Parameter_File>
/export/apps/rDock/src/rDock_2013.1_src/data/scripts/dock_solv.prm

>  <Rbt.Receptor>
prm/blind_docking_40.prm

>  <SCORE>
-8.15561

>  <SCORE.INTER>
-8.77658

>  <SCORE.INTER.CONST>
1

>  <SCORE.INTER.POLAR>
-1.6887

>  <SCORE.INTER.ROT>
3

>  <SCORE.INTER.SOLV>
19.6992

>  <SCORE.INTER.VDW>
-12.3885

>  <SCORE.INTER.norm>
-0.398935

>  <SCORE.INTRA>
0.620968

>  <SCORE.INTRA.DIHEDRAL>
-2.62589

>  <SCORE.INTRA.DIHEDRAL.0>
4.88619

>  <SCORE.INTRA.POLAR>
0

>  <SCORE.INTRA.POLAR.0>
0

>  <SCORE.INTRA.REPUL>
0

>  <SCORE.INTRA.REPUL.0>
0

>  <SCORE.INTRA.SOLV>
2.67537

>  <SCORE.INTRA.SOLV.lig_0>
-73.8187

>  <SCORE.INTRA.VDW>
0.596226

>  <SCORE.INTRA.VDW.0>
-1.32335

>  <SCORE.INTRA.norm>
0.0282258

>  <SCORE.RESTR>
0

>  <SCORE.RESTR.CAVITY>
0

>  <SCORE.RESTR.norm>
0

>  <SCORE.SYSTEM>
0

>  <SCORE.SYSTEM.CONST>
0

>  <SCORE.SYSTEM.DIHEDRAL>
0

>  <SCORE.SYSTEM.SOLV>
0

>  <SCORE.SYSTEM.norm>
0

>  <SCORE.heavy>
22

>  <SCORE.norm>
-0.37071

>  <RMSD>
11.564

$$$$
2fcx_lig
 OpenBabel11021811433D
libRbt.so/2013.1/901 2013/11/27
 22 23  0  0  0  0  0  0  0  0999 V2000
   31.0479   -2.7971   10.5020 N   0  0  0  0  0  0  0  0  0  0  0  0
   29.8683    1.9344    9.9572 N   0  0  0  0  0  0  0  0  0  0  0  0
   28.7606    5.8071   10.0469 N   0  0  0  0  0  0  0  0  0  0  0  0
   26.4861   -1.5094    9.3400 O   0  0  0  0  0  0  0  0  0  0  0  0
   27.8671   -1.1955    9.1409 C   0  0  2  0  0  0  0  0  0  0  0  0
   24.6658    1.7816    8.2755 N   0  0  0  0  0  0  0  0  0  0  0  0
   28.5103   -3.5004    9.3201 O   0  0  0  0  0  0  0  0  0  0  0  0
   28.7448   -2.2049    9.8847 C   0  0  1  0  0  0  0  0  0  0  0  0
   27.4316    1.1662    8.7365 O   0  0  0  0  0  0  0  0  0  0  0  0
   30.2253   -1.8447    9.7418 C   0  0  1  0  0  0  0  0  0  0  0  0
   27.7614    3.2563    9.7436 O   0  0  0  0  0  0  0  0  0  0  0  0
   30.4874   -0.4273   10.2620 C   0  0  0  0  0  0  0  0  0  0  0  0
   27.7891    5.0456    6.5064 O   0  0  0  0  0  0  0  0  0  0  0  0
   29.6334    0.5675    9.4709 C   0  0  1  0  0  0  0  0  0  0  0  0
   25.1367    4.0513    6.5841 O   0  0  0  0  0  0  0  0  0  0  0  0
   28.1400    0.2469    9.5844 C   0  0  2  0  0  0  0  0  0  0  0  0
   26.7902    2.2335    9.4558 C   0  0  1  0  0  0  0  0  0  0  0  0
   28.3242    3.8786    8.5710 C   0  0  2  0  0  0  0  0  0  0  0  0
   29.3157    4.9739    8.9698 C   0  0  0  0  0  0  0  0  0  0  0  0
   27.2279    4.5112    7.7094 C   0  0  2  0  0  0  0  0  0  0  0  0
   26.1927    3.4493    7.3351 C   0  0  1  0  0  0  0  0  0  0  0  0
   25.6464    2.8201    8.6194 C   0  0  1  0  0  0  0  0  0  0  0  0
  5  4  1  1  0  0  0
  5  8  1  0  0  0  0
  5 16  1  0  0  0  0
  8  7  1  6  0  0  0
  8 10  1  0  0  0  0
 10  1  1  1  0  0  0
 10 12  1  0  0  0  0
 11 18  1  0  0  0  0
 12 14  1  0  0  0  0
 14  2  1  1  0  0  0
 14 16  1  0  0  0  0
 16  9  1  6  0  0  0
 17  9  1  6  0  0  0
 17 11  1  0  0  0  0
 17 22  1  0  0  0  0
 18 19  1  1  0  0  0
 18 20  1  0  0  0  0
 19  3  1  0  0  0  0
 20 13  1  6  0  0  0
 20 21  1  0  0  0  0
 21 15  1  1  0  0  0
 21 22  1  0  0  0  0
 22  6  1  6  0  0  0
M  END
>  <CHROM.1>
136.66353008,81.60786585,-44.86275729,27.97508794,1.47090699,8.96647619,-1.22272878
-0.40303768,-0.13584070

>  <Name>
2fcx_lig

>  <RI>
2.63278e+07

>  <Rbt.Current_Directory>
/home/itssahil/PROJECTS/Mol_Feturizer/New_Systems/rnas/2fcx

>  <Rbt.Executable>
rbdock ($Id: //depot/dev/client3/rdock/2013.1/src/exe/rbdock.cxx#4 $)

>  <Rbt.Library>
libRbt.so (2013.1, Build901 2013/11/27)

>  <Rbt.Parameter_File>
/export/apps/rDock/src/rDock_2013.1_src/data/scripts/dock_solv.prm

>  <Rbt.Receptor>
prm/blind_docking_40.prm

>  <SCORE>
-11.7896

>  <SCORE.INTER>
-16.0074

>  <SCORE.INTER.CONST>
1

>  <SCORE.INTER.POLAR>
-3.51793

>  <SCORE.INTER.ROT>
3

>  <SCORE.INTER.SOLV>
15.6283

>  <SCORE.INTER.VDW>
-9.75459

>  <SCORE.INTER.norm>
-0.727607

>  <SCORE.INTRA>
3.98828

>  <SCORE.INTRA.DIHEDRAL>
3.88117

>  <SCORE.INTRA.DIHEDRAL.0>
4.88619

>  <SCORE.INTRA.POLAR>
0

>  <SCORE.INTRA.POLAR.0>
0

>  <SCORE.INTRA.REPUL>
0

>  <SCORE.INTRA.REPUL.0>
0

>  <SCORE.INTRA.SOLV>
4.03512

>  <SCORE.INTRA.SOLV.lig_0>
-73.8187

>  <SCORE.INTRA.VDW>
0.0301338

>  <SCORE.INTRA.VDW.0>
-1.32335

>  <SCORE.INTRA.norm>
0.181285

>  <SCORE.RESTR>
0.229491

>  <SCORE.RESTR.CAVITY>
0.229491

>  <SCORE.RESTR.norm>
0.0104314

>  <SCORE.SYSTEM>
0

>  <SCORE.SYSTEM.CONST>
0

>  <SCORE.SYSTEM.DIHEDRAL>
0

>  <SCORE.SYSTEM.SOLV>
0

>  <SCORE.SYSTEM.norm>
0

>  <SCORE.heavy>
22

>  <SCORE.norm>
-0.535891

>  <RMSD>
11.573

$$$$
2fcx_lig
 OpenBabel11021811433D
libRbt.so/2013.1/901 2013/11/27
 22 23  0  0  0  0  0  0  0  0999 V2000
   27.3284    5.6675   11.1827 N   0  0  0  0  0  0  0  0  0  0  0  0
   25.0430    2.2166    8.5477 N   0  0  0  0  0  0  0  0  0  0  0  0
   28.3248   -2.5389    8.8131 N   0  0  0  0  0  0  0  0  0  0  0  0
   29.8198    2.9531    7.9822 O   0  0  0  0  0  0  0  0  0  0  0  0
   28.5701    3.6039    8.2272 C   0  0  2  0  0  0  0  0  0  0  0  0
   27.7718    1.1957    4.1521 N   0  0  0  0  0  0  0  0  0  0  0  0
   29.6277    5.3675    9.4639 O   0  0  0  0  0  0  0  0  0  0  0  0
   28.6231    4.3511    9.5619 C   0  0  1  0  0  0  0  0  0  0  0  0
   27.3079    2.0343    6.8581 O   0  0  0  0  0  0  0  0  0  0  0  0
   27.2713    4.9962    9.8759 C   0  0  1  0  0  0  0  0  0  0  0  0
   28.3126    0.0789    7.6697 O   0  0  0  0  0  0  0  0  0  0  0  0
   26.1629    3.9383    9.9024 C   0  0  0  0  0  0  0  0  0  0  0  0
   25.3649   -2.0122    6.8824 O   0  0  0  0  0  0  0  0  0  0  0  0
   26.0994    3.2384    8.5420 C   0  0  1  0  0  0  0  0  0  0  0  0
   26.1873   -1.1923    4.2975 O   0  0  0  0  0  0  0  0  0  0  0  0
   27.4329    2.5758    8.1837 C   0  0  2  0  0  0  0  0  0  0  0  0
   28.2660    1.0024    6.5664 C   0  0  1  0  0  0  0  0  0  0  0  0
   27.0719   -0.6164    7.9064 C   0  0  2  0  0  0  0  0  0  0  0  0
   27.2227   -1.5997    9.0693 C   0  0  0  0  0  0  0  0  0  0  0  0
   26.6403   -1.4011    6.6645 C   0  0  2  0  0  0  0  0  0  0  0  0
   26.5287   -0.4514    5.4706 C   0  0  1  0  0  0  0  0  0  0  0  0
   27.8698    0.2628    5.2827 C   0  0  1  0  0  0  0  0  0  0  0  0
  5  4  1  1  0  0  0
  5  8  1  0  0  0  0
  5 16  1  0  0  0  0
  8  7  1  6  0  0  0
  8 10  1  0  0  0  0
 10  1  1  1  0  0  0
 10 12  1  0  0  0  0
 11 18  1  0  0  0  0
 12 14  1  0  0  0  0
 14  2  1  1  0  0  0
 14 16  1  0  0  0  0
 16  9  1  6  0  0  0
 17  9  1  1  0  0  0
 17 11  1  0  0  0  0
 17 22  1  0  0  0  0
 18 19  1  1  0  0  0
 18 20  1  0  0  0  0
 19  3  1  0  0  0  0
 20 13  1  1  0  0  0
 20 21  1  0  0  0  0
 21 15  1  6  0  0  0
 21 22  1  0  0  0  0
 22  6  1  6  0  0  0
M  END
>  <CHROM.1>
80.35175516,46.32761319,-56.14150457,27.41511092,1.51070888,7.75980936,1.17616038
1.13512603,0.88764015

>  <Name>
2fcx_lig

>  <RI>
224

>  <Rbt.Current_Directory>
/home/itssahil/PROJECTS/Mol_Feturizer/New_Systems/rnas/2fcx

>  <Rbt.Executable>
rbdock ($Id: //depot/dev/client3/rdock/2013.1/src/exe/rbdock.cxx#4 $)

>  <Rbt.Library>
libRbt.so (2013.1, Build901 2013/11/27)

>  <Rbt.Parameter_File>
/export/apps/rDock/src/rDock_2013.1_src/data/scripts/dock_solv.prm

>  <Rbt.Receptor>
prm/blind_docking_60.prm

>  <SCORE>
-9.48784

>  <SCORE.INTER>
-9.3257

>  <SCORE.INTER.CONST>
1

>  <SCORE.INTER.POLAR>
-1.14758

>  <SCORE.INTER.ROT>
3

>  <SCORE.INTER.SOLV>
18.1965

>  <SCORE.INTER.VDW>
-14.0574

>  <SCORE.INTER.norm>
-0.423896

>  <SCORE.INTRA>
-0.214268

>  <SCORE.INTRA.DIHEDRAL>
-2.08511

>  <SCORE.INTRA.DIHEDRAL.0>
4.88619

>  <SCORE.INTRA.POLAR>
0

>  <SCORE.INTRA.POLAR.0>
0

>  <SCORE.INTRA.REPUL>
0

>  <SCORE.INTRA.REPUL.0>
0

>  <SCORE.INTRA.SOLV>
1.31784

>  <SCORE.INTRA.SOLV.lig_0>
-73.8187

>  <SCORE.INTRA.VDW>
0.169367

>  <SCORE.INTRA.VDW.0>
-1.32335

>  <SCORE.INTRA.norm>
-0.00973946

>  <SCORE.RESTR>
0.0521299

>  <SCORE.RESTR.CAVITY>
0.0521299

>  <SCORE.RESTR.norm>
0.00236954

>  <SCORE.SYSTEM>
0

>  <SCORE.SYSTEM.CONST>
0

>  <SCORE.SYSTEM.DIHEDRAL>
0

>  <SCORE.SYSTEM.SOLV>
0

>  <SCORE.SYSTEM.norm>
0

>  <SCORE.heavy>
22

>  <SCORE.norm>
-0.431265

>  <RMSD>
11.641

$$$$
2fcx_lig
 OpenBabel11021811433D
libRbt.so/2013.1/901 2013/11/27
 22 23  0  0  0  0  0  0  0  0999 V2000
   28.3712   -2.3304   11.6812 N   0  0  0  0  0  0  0  0  0  0  0  0
   29.9126    1.9853    9.9280 N   0  0  0  0  0  0  0  0  0  0  0  0
   28.0778    5.7632   10.4804 N   0  0  0  0  0  0  0  0  0  0  0  0
   25.5146    0.2909    8.7169 O   0  0  0  0  0  0  0  0  0  0  0  0
   26.8662   -0.0895    8.9889 C   0  0  2  0  0  0  0  0  0  0  0  0
   26.3926    1.9079    5.5445 N   0  0  0  0  0  0  0  0  0  0  0  0
   26.1927   -2.2491    9.7895 O   0  0  0  0  0  0  0  0  0  0  0  0
   26.9070   -1.0661   10.1667 C   0  0  1  0  0  0  0  0  0  0  0  0
   27.7943    1.9566    8.0492 O   0  0  0  0  0  0  0  0  0  0  0  0
   28.3511   -1.4306   10.5186 C   0  0  1  0  0  0  0  0  0  0  0  0
   26.7956    4.0026    8.6044 O   0  0  0  0  0  0  0  0  0  0  0  0
   29.1605   -0.1708   10.8442 C   0  0  0  0  0  0  0  0  0  0  0  0
   28.9903    5.9287    6.3340 O   0  0  0  0  0  0  0  0  0  0  0  0
   29.1432    0.7679    9.6345 C   0  0  1  0  0  0  0  0  0  0  0  0
   27.5496    4.3177    4.5012 O   0  0  0  0  0  0  0  0  0  0  0  0
   27.7155    1.1616    9.2441 C   0  0  2  0  0  0  0  0  0  0  0  0
   26.6437    2.7930    7.8388 C   0  0  1  0  0  0  0  0  0  0  0  0
   27.9237    4.8094    8.2101 C   0  0  2  0  0  0  0  0  0  0  0  0
   27.9869    6.0877    9.0490 C   0  0  0  0  0  0  0  0  0  0  0  0
   27.8223    5.2057    6.7347 C   0  0  2  0  0  0  0  0  0  0  0  0
   27.7075    3.9476    5.8722 C   0  0  1  0  0  0  0  0  0  0  0  0
   26.5033    3.1317    6.3497 C   0  0  1  0  0  0  0  0  0  0  0  0
  5  4  1  1  0  0  0
  5  8  1  0  0  0  0
  5 16  1  0  0  0  0
  8  7  1  6  0  0  0
  8 10  1  0  0  0  0
 10  1  1  1  0  0  0
 10 12  1  0  0  0  0
 11 18  1  0  0  0  0
 12 14  1  0  0  0  0
 14  2  1  1  0  0  0
 14 16  1  0  0  0  0
 16  9  1  6  0  0  0
 17  9  1  6  0  0  0
 17 11  1  0  0  0  0
 17 22  1  0  0  0  0
 18 19  1  1  0  0  0
 18 20  1  0  0  0  0
 19  3  1  0  0  0  0
 20 13  1  6  0  0  0
 20 21  1  0  0  0  0
 21 15  1  6  0  0  0
 21 22  1  0  0  0  0
 22  6  1  6  0  0  0
M  END
>  <CHROM.1>
81.31230326,83.24009236,58.02186656,27.63436283,2.13984425,8.47628171,-1.61247542
-1.03140025,-0.54962434

>  <Name>
2fcx_lig

>  <RI>
2.63278e+07

>  <Rbt.Current_Directory>
/home/itssahil/PROJECTS/Mol_Feturizer/New_Systems/rnas/2fcx

>  <Rbt.Executable>
rbdock ($Id: //depot/dev/client3/rdock/2013.1/src/exe/rbdock.cxx#4 $)

>  <Rbt.Library>
libRbt.so (2013.1, Build901 2013/11/27)

>  <Rbt.Parameter_File>
/export/apps/rDock/src/rDock_2013.1_src/data/scripts/dock_solv.prm

>  <Rbt.Receptor>
prm/blind_docking_40.prm

>  <SCORE>
-10.4155

>  <SCORE.INTER>
-10.0416

>  <SCORE.INTER.CONST>
1

>  <SCORE.INTER.POLAR>
-2.23827

>  <SCORE.INTER.ROT>
3

>  <SCORE.INTER.SOLV>
14.7016

>  <SCORE.INTER.VDW>
-9.73405

>  <SCORE.INTER.norm>
-0.456438

>  <SCORE.INTRA>
-0.373862

>  <SCORE.INTRA.DIHEDRAL>
-0.492953

>  <SCORE.INTRA.DIHEDRAL.0>
4.88619

>  <SCORE.INTRA.POLAR>
0

>  <SCORE.INTRA.POLAR.0>
0

>  <SCORE.INTRA.REPUL>
0

>  <SCORE.INTRA.REPUL.0>
0

>  <SCORE.INTRA.SOLV>
0.312183

>  <SCORE.INTRA.SOLV.lig_0>
-73.8187

>  <SCORE.INTRA.VDW>
-0.283478

>  <SCORE.INTRA.VDW.0>
-1.32335

>  <SCORE.INTRA.norm>
-0.0169937

>  <SCORE.RESTR>
0

>  <SCORE.RESTR.CAVITY>
0

>  <SCORE.RESTR.norm>
0

>  <SCORE.SYSTEM>
0

>  <SCORE.SYSTEM.CONST>
0

>  <SCORE.SYSTEM.DIHEDRAL>
0

>  <SCORE.SYSTEM.SOLV>
0

>  <SCORE.SYSTEM.norm>
0

>  <SCORE.heavy>
22

>  <SCORE.norm>
-0.473431

>  <RMSD>
11.642

$$$$
2fcx_lig
 OpenBabel11021811433D
libRbt.so/2013.1/901 2013/11/27
 22 23  0  0  0  0  0  0  0  0999 V2000
   28.2390   -2.8344   11.4304 N   0  0  0  0  0  0  0  0  0  0  0  0
   26.2322    0.9728    9.0741 N   0  0  0  0  0  0  0  0  0  0  0  0
   29.6201    0.3332    5.6092 N   0  0  0  0  0  0  0  0  0  0  0  0
   31.0153    0.9031    9.9669 O   0  0  0  0  0  0  0  0  0  0  0  0
   29.7349    0.5450   10.4938 C   0  0  2  0  0  0  0  0  0  0  0  0
   29.2589    5.2228    9.8675 N   0  0  0  0  0  0  0  0  0  0  0  0
   30.6579   -1.2894   11.7352 O   0  0  0  0  0  0  0  0  0  0  0  0
   29.6763   -0.9638   10.7440 C   0  0  1  0  0  0  0  0  0  0  0  0
   28.6117    2.4531    9.4796 O   0  0  0  0  0  0  0  0  0  0  0  0
   28.2895   -1.3772   11.2421 C   0  0  1  0  0  0  0  0  0  0  0  0
   30.0633    2.3385    7.6434 O   0  0  0  0  0  0  0  0  0  0  0  0
   27.2104   -0.9628   10.2361 C   0  0  0  0  0  0  0  0  0  0  0  0
   27.7099    4.1103    5.4065 O   0  0  0  0  0  0  0  0  0  0  0  0
   27.2590    0.5550   10.0390 C   0  0  1  0  0  0  0  0  0  0  0  0
   28.3023    6.1194    7.3150 O   0  0  0  0  0  0  0  0  0  0  0  0
   28.6311    1.0171    9.5395 C   0  0  2  0  0  0  0  0  0  0  0  0
   29.7910    3.0191    8.8824 C   0  0  1  0  0  0  0  0  0  0  0  0
   29.0292    2.4907    6.6502 C   0  0  2  0  0  0  0  0  0  0  0  0
   29.4171    1.7679    5.3584 C   0  0  0  0  0  0  0  0  0  0  0  0
   28.7982    3.9689    6.3248 C   0  0  2  0  0  0  0  0  0  0  0  0
   28.4563    4.7293    7.6072 C   0  0  1  0  0  0  0  0  0  0  0  0
   29.5833    4.5159    8.6213 C   0  0  1  0  0  0  0  0  0  0  0  0
  5  4  1  6  0  0  0
  5  8  1  0  0  0  0
  5 16  1  0  0  0  0
  8  7  1  1  0  0  0
  8 10  1  0  0  0  0
 10  1  1  6  0  0  0
 10 12  1  0  0  0  0
 11 18  1  0  0  0  0
 12 14  1  0  0  0  0
 14  2  1  6  0  0  0
 14 16  1  0  0  0  0
 16  9  1  1  0  0  0
 17  9  1  6  0  0  0
 17 11  1  0  0  0  0
 17 22  1  0  0  0  0
 18 19  1  6  0  0  0
 18 20  1  0  0  0  0
 19  3  1  0  0  0  0
 20 13  1  6  0  0  0
 20 21  1  0  0  0  0
 21 15  1  6  0  0  0
 21 22  1  0  0  0  0
 22  6  1  1  0  0  0
M  END
>  <CHROM.1>
66.17808031,48.92270162,59.68910498,28.90853192,1.73412418,8.76994090,1.43201358
1.39632613,2.64179204

>  <Name>
2fcx_lig

>  <RI>
2.63278e+07

>  <Rbt.Current_Directory>
/home/itssahil/PROJECTS/Mol_Feturizer/New_Systems/rnas/2fcx

>  <Rbt.Executable>
rbdock ($Id: //depot/dev/client3/rdock/2013.1/src/exe/rbdock.cxx#4 $)

>  <Rbt.Library>
libRbt.so (2013.1, Build901 2013/11/27)

>  <Rbt.Parameter_File>
/export/apps/rDock/src/rDock_2013.1_src/data/scripts/dock_solv.prm

>  <Rbt.Receptor>
prm/blind_docking_40.prm

>  <SCORE>
-18.3693

>  <SCORE.INTER>
-17.1586

>  <SCORE.INTER.CONST>
1

>  <SCORE.INTER.POLAR>
-2.49714

>  <SCORE.INTER.ROT>
3

>  <SCORE.INTER.SOLV>
13.7368

>  <SCORE.INTER.VDW>
-13.2942

>  <SCORE.INTER.norm>
-0.779939

>  <SCORE.INTRA>
-1.44509

>  <SCORE.INTRA.DIHEDRAL>
-4.10171

>  <SCORE.INTRA.DIHEDRAL.0>
4.88619

>  <SCORE.INTRA.POLAR>
0

>  <SCORE.INTRA.POLAR.0>
0

>  <SCORE.INTRA.REPUL>
0

>  <SCORE.INTRA.REPUL.0>
0

>  <SCORE.INTRA.SOLV>
-0.652717

>  <SCORE.INTRA.SOLV.lig_0>
-73.8187

>  <SCORE.INTRA.VDW>
0.932123

>  <SCORE.INTRA.VDW.0>
-1.32335

>  <SCORE.INTRA.norm>
-0.0656858

>  <SCORE.RESTR>
0.234439

>  <SCORE.RESTR.CAVITY>
0.234439

>  <SCORE.RESTR.norm>
0.0106563

>  <SCORE.SYSTEM>
0

>  <SCORE.SYSTEM.CONST>
0

>  <SCORE.SYSTEM.DIHEDRAL>
0

>  <SCORE.SYSTEM.SOLV>
0

>  <SCORE.SYSTEM.norm>
0

>  <SCORE.heavy>
22

>  <SCORE.norm>
-0.834968

>  <RMSD>
11.804

$$$$
2fcx_lig
 OpenBabel11021811433D
libRbt.so/2013.1/901 2013/11/27
 22 23  0  0  0  0  0  0  0  0999 V2000
   23.2370    2.1207    5.8989 N   0  0  0  0  0  0  0  0  0  0  0  0
   26.6616   -1.2425    6.9168 N   0  0  0  0  0  0  0  0  0  0  0  0
   26.7507   -2.1739   11.8424 N   0  0  0  0  0  0  0  0  0  0  0  0
   26.4242    2.8622    9.5198 O   0  0  0  0  0  0  0  0  0  0  0  0
   26.2638    2.3126    8.2092 C   0  0  2  0  0  0  0  0  0  0  0  0
   30.3853    2.2711    8.7010 N   0  0  0  0  0  0  0  0  0  0  0  0
   24.6369    3.9730    7.6137 O   0  0  0  0  0  0  0  0  0  0  0  0
   24.8376    2.5580    7.7109 C   0  0  1  0  0  0  0  0  0  0  0  0
   28.0200    0.6545    8.5212 O   0  0  0  0  0  0  0  0  0  0  0  0
   24.6250    1.9155    6.3382 C   0  0  1  0  0  0  0  0  0  0  0  0
   28.0005    0.3684   10.8470 O   0  0  0  0  0  0  0  0  0  0  0  0
   24.9167    0.4122    6.3962 C   0  0  0  0  0  0  0  0  0  0  0  0
   30.7558   -2.0984   10.7767 O   0  0  0  0  0  0  0  0  0  0  0  0
   26.3625    0.1950    6.8517 C   0  0  1  0  0  0  0  0  0  0  0  0
   32.0589    0.2366    9.8387 O   0  0  0  0  0  0  0  0  0  0  0  0
   26.6236    0.8219    8.2245 C   0  0  2  0  0  0  0  0  0  0  0  0
   28.4144    1.2363    9.7757 C   0  0  1  0  0  0  0  0  0  0  0  0
   28.6233   -0.9318   10.8236 C   0  0  2  0  0  0  0  0  0  0  0  0
   28.1546   -1.7715   12.0139 C   0  0  0  0  0  0  0  0  0  0  0  0
   30.1479   -0.8081   10.8914 C   0  0  2  0  0  0  0  0  0  0  0  0
   30.6434    0.0687    9.7402 C   0  0  1  0  0  0  0  0  0  0  0  0
   29.9359    1.4245    9.8143 C   0  0  1  0  0  0  0  0  0  0  0  0
  5  4  1  1  0  0  0
  5  8  1  0  0  0  0
  5 16  1  0  0  0  0
  8  7  1  6  0  0  0
  8 10  1  0  0  0  0
 10  1  1  1  0  0  0
 10 12  1  0  0  0  0
 11 18  1  0  0  0  0
 12 14  1  0  0  0  0
 14  2  1  1  0  0  0
 14 16  1  0  0  0  0
 16  9  1  6  0  0  0
 17  9  1  6  0  0  0
 17 11  1  0  0  0  0
 17 22  1  0  0  0  0
 18 19  1  1  0  0  0
 18 20  1  0  0  0  0
 19  3  1  0  0  0  0
 20 13  1  6  0  0  0
 20 21  1  0  0  0  0
 21 15  1  1  0  0  0
 21 22  1  0  0  0  0
 22  6  1  6  0  0  0
M  END
>  <CHROM.1>
57.92075236,77.61462888,70.90742303,27.59341830,0.66074060,8.99207724,2.49666919
-0.34397573,-0.50538252

>  <Name>
2fcx_lig

>  <RI>
2.63278e+07

>  <Rbt.Current_Directory>
/home/itssahil/PROJECTS/Mol_Feturizer/New_Systems/rnas/2fcx

>  <Rbt.Executable>
rbdock ($Id: //depot/dev/client3/rdock/2013.1/src/exe/rbdock.cxx#4 $)

>  <Rbt.Library>
libRbt.so (2013.1, Build901 2013/11/27)

>  <Rbt.Parameter_File>
/export/apps/rDock/src/rDock_2013.1_src/data/scripts/dock_solv.prm

>  <Rbt.Receptor>
prm/blind_docking_40.prm

>  <SCORE>
-9.62955

>  <SCORE.INTER>
-9.27053

>  <SCORE.INTER.CONST>
1

>  <SCORE.INTER.POLAR>
-0.998965

>  <SCORE.INTER.ROT>
3

>  <SCORE.INTER.SOLV>
19.2725

>  <SCORE.INTER.VDW>
-14.8746

>  <SCORE.INTER.norm>
-0.421388

>  <SCORE.INTRA>
-0.359022

>  <SCORE.INTRA.DIHEDRAL>
-3.01879

>  <SCORE.INTRA.DIHEDRAL.0>
4.88619

>  <SCORE.INTRA.POLAR>
0

>  <SCORE.INTRA.POLAR.0>
0

>  <SCORE.INTRA.REPUL>
0

>  <SCORE.INTRA.REPUL.0>
0

>  <SCORE.INTRA.SOLV>
-0.954437

>  <SCORE.INTRA.SOLV.lig_0>
-73.8187

>  <SCORE.INTRA.VDW>
1.62759

>  <SCORE.INTRA.VDW.0>
-1.32335

>  <SCORE.INTRA.norm>
-0.0163192

>  <SCORE.RESTR>
0

>  <SCORE.RESTR.CAVITY>
0

>  <SCORE.RESTR.norm>
0

>  <SCORE.SYSTEM>
0

>  <SCORE.SYSTEM.CONST>
0

>  <SCORE.SYSTEM.DIHEDRAL>
0

>  <SCORE.SYSTEM.SOLV>
0

>  <SCORE.SYSTEM.norm>
0

>  <SCORE.heavy>
22

>  <SCORE.norm>
-0.437707

>  <RMSD>
11.849

$$$$
2fcx_lig
 OpenBabel11021811433D
libRbt.so/2013.1/901 2013/11/27
 22 23  0  0  0  0  0  0  0  0999 V2000
   31.9082   -2.9467   11.4351 N   0  0  0  0  0  0  0  0  0  0  0  0
   30.5294   -0.2228    7.5940 N   0  0  0  0  0  0  0  0  0  0  0  0
   29.3447    5.2154    9.7607 N   0  0  0  0  0  0  0  0  0  0  0  0
   28.1584    0.1524   11.8269 O   0  0  0  0  0  0  0  0  0  0  0  0
   28.8217   -0.7619   10.9497 C   0  0  2  0  0  0  0  0  0  0  0  0
   25.3562    0.9450    8.3734 N   0  0  0  0  0  0  0  0  0  0  0  0
   29.4665   -2.1837   12.7720 O   0  0  0  0  0  0  0  0  0  0  0  0
   29.9935   -1.4261   11.6764 C   0  0  1  0  0  0  0  0  0  0  0  0
   28.1212    0.4188    8.9381 O   0  0  0  0  0  0  0  0  0  0  0  0
   30.7595   -2.3561   10.7327 C   0  0  1  0  0  0  0  0  0  0  0  0
   28.4060    2.6029    9.7384 O   0  0  0  0  0  0  0  0  0  0  0  0
   31.2620   -1.5851    9.5074 C   0  0  0  0  0  0  0  0  0  0  0  0
   28.4677    4.0635    6.3407 O   0  0  0  0  0  0  0  0  0  0  0  0
   30.0677   -0.9702    8.7723 C   0  0  1  0  0  0  0  0  0  0  0  0
   25.8274    3.0430    6.4732 O   0  0  0  0  0  0  0  0  0  0  0  0
   29.2687   -0.0291    9.6788 C   0  0  2  0  0  0  0  0  0  0  0  0
   27.4534    1.5425    9.5375 C   0  0  1  0  0  0  0  0  0  0  0  0
   28.9813    3.1144    8.5192 C   0  0  2  0  0  0  0  0  0  0  0  0
   29.9513    4.2581    8.8237 C   0  0  0  0  0  0  0  0  0  0  0  0
   27.8923    3.6425    7.5814 C   0  0  2  0  0  0  0  0  0  0  0  0
   26.8777    2.5337    7.2973 C   0  0  1  0  0  0  0  0  0  0  0  0
   26.3170    2.0266    8.6287 C   0  0  1  0  0  0  0  0  0  0  0  0
  5  4  1  1  0  0  0
  5  8  1  0  0  0  0
  5 16  1  0  0  0  0
  8  7  1  1  0  0  0
  8 10  1  0  0  0  0
 10  1  1  1  0  0  0
 10 12  1  0  0  0  0
 11 18  1  0  0  0  0
 12 14  1  0  0  0  0
 14  2  1  6  0  0  0
 14 16  1  0  0  0  0
 16  9  1  6  0  0  0
 17  9  1  6  0  0  0
 17 11  1  0  0  0  0
 17 22  1  0  0  0  0
 18 19  1  1  0  0  0
 18 20  1  0  0  0  0
 19  3  1  0  0  0  0
 20 13  1  6  0  0  0
 20 21  1  0  0  0  0
 21 15  1  6  0  0  0
 21 22  1  0  0  0  0
 22  6  1  6  0  0  0
M  END
>  <CHROM.1>
73.50176570,54.67350104,-47.22497738,28.76064239,0.98039297,9.31679393,-1.15021492
-0.11472260,-0.52198758

>  <Name>
2fcx_lig

>  <RI>
2.51704e+07

>  <Rbt.Current_Directory>
/home/itssahil/PROJECTS/Mol_Feturizer/New_Systems/rnas/2fcx

>  <Rbt.Executable>
rbdock ($Id: //depot/dev/client3/rdock/2013.1/src/exe/rbdock.cxx#4 $)

>  <Rbt.Library>
libRbt.so (2013.1, Build901 2013/11/27)

>  <Rbt.Parameter_File>
/export/apps/rDock/src/rDock_2013.1_src/data/scripts/dock_solv.prm

>  <Rbt.Receptor>
prm/blind_docking_80.prm

>  <SCORE>
-19.0038

>  <SCORE.INTER>
-18.2956

>  <SCORE.INTER.CONST>
1

>  <SCORE.INTER.POLAR>
-3.76803

>  <SCORE.INTER.ROT>
3

>  <SCORE.INTER.SOLV>
17.371

>  <SCORE.INTER.VDW>
-11.0273

>  <SCORE.INTER.norm>
-0.831619

>  <SCORE.INTRA>
-1.08573

>  <SCORE.INTRA.DIHEDRAL>
-3.31476

>  <SCORE.INTRA.DIHEDRAL.0>
4.88619

>  <SCORE.INTRA.POLAR>
0

>  <SCORE.INTRA.POLAR.0>
0

>  <SCORE.INTRA.REPUL>
0

>  <SCORE.INTRA.REPUL.0>
0

>  <SCORE.INTRA.SOLV>
0.480505

>  <SCORE.INTRA.SOLV.lig_0>
-73.8187

>  <SCORE.INTRA.VDW>
0.331399

>  <SCORE.INTRA.VDW.0>
-1.32335

>  <SCORE.INTRA.norm>
-0.0493512

>  <SCORE.RESTR>
0.377514

>  <SCORE.RESTR.CAVITY>
0.377514

>  <SCORE.RESTR.norm>
0.0171597

>  <SCORE.SYSTEM>
0

>  <SCORE.SYSTEM.CONST>
0

>  <SCORE.SYSTEM.DIHEDRAL>
0

>  <SCORE.SYSTEM.SOLV>
0

>  <SCORE.SYSTEM.norm>
0

>  <SCORE.heavy>
22

>  <SCORE.norm>
-0.863811

>  <RMSD>
11.855

$$$$
2fcx_lig
 OpenBabel11021811433D
libRbt.so/2013.1/901 2013/11/27
 22 23  0  0  0  0  0  0  0  0999 V2000
   26.8868   -2.2861    9.8914 N   0  0  0  0  0  0  0  0  0  0  0  0
   28.1161    2.4482    9.5042 N   0  0  0  0  0  0  0  0  0  0  0  0
   27.8553    5.3631   10.4084 N   0  0  0  0  0  0  0  0  0  0  0  0
   24.7394    0.5559    6.5551 O   0  0  0  0  0  0  0  0  0  0  0  0
   25.9719    0.2834    7.2276 C   0  0  2  0  0  0  0  0  0  0  0  0
   25.5309    3.5877    4.6337 N   0  0  0  0  0  0  0  0  0  0  0  0
   25.4727   -2.0584    7.3855 O   0  0  0  0  0  0  0  0  0  0  0  0
   25.7988   -0.9074    8.1734 C   0  0  1  0  0  0  0  0  0  0  0  0
   26.7734    2.5732    7.0144 O   0  0  0  0  0  0  0  0  0  0  0  0
   27.0880   -1.1707    8.9549 C   0  0  1  0  0  0  0  0  0  0  0  0
   26.3128    4.5735    8.1452 O   0  0  0  0  0  0  0  0  0  0  0  0
   27.5054    0.0766    9.7412 C   0  0  0  0  0  0  0  0  0  0  0  0
   29.0396    6.4061    6.4460 O   0  0  0  0  0  0  0  0  0  0  0  0
   27.7176    1.2399    8.7684 C   0  0  1  0  0  0  0  0  0  0  0  0
   27.3221    5.8007    4.2748 O   0  0  0  0  0  0  0  0  0  0  0  0
   26.4510    1.5415    7.9620 C   0  0  2  0  0  0  0  0  0  0  0  0
   25.8903    3.7064    7.0765 C   0  0  1  0  0  0  0  0  0  0  0  0
   27.6292    5.1326    7.9623 C   0  0  2  0  0  0  0  0  0  0  0  0
   27.9802    6.0661    9.1229 C   0  0  0  0  0  0  0  0  0  0  0  0
   27.7061    5.9332    6.6594 C   0  0  2  0  0  0  0  0  0  0  0  0
   27.3116    5.0384    5.4833 C   0  0  1  0  0  0  0  0  0  0  0  0
   25.9154    4.4677    5.7455 C   0  0  1  0  0  0  0  0  0  0  0  0
  5  4  1  1  0  0  0
  5  8  1  0  0  0  0
  5 16  1  0  0  0  0
  8  7  1  6  0  0  0
  8 10  1  0  0  0  0
 10  1  1  1  0  0  0
 10 12  1  0  0  0  0
 11 18  1  0  0  0  0
 12 14  1  0  0  0  0
 14  2  1  1  0  0  0
 14 16  1  0  0  0  0
 16  9  1  6  0  0  0
 17  9  1  6  0  0  0
 17 11  1  0  0  0  0
 17 22  1  0  0  0  0
 18 19  1  1  0  0  0
 18 20  1  0  0  0  0
 19  3  1  0  0  0  0
 20 13  1  6  0  0  0
 20 21  1  0  0  0  0
 21 15  1  6  0  0  0
 21 22  1  0  0  0  0
 22  6  1  6  0  0  0
M  END
>  <CHROM.1>
113.13084007,81.92992256,55.47955437,26.85832387,2.66973445,7.56655893,-1.93142979
-1.06878117,-0.58973602

>  <Name>
2fcx_lig

>  <RI>
224

>  <Rbt.Current_Directory>
/home/itssahil/PROJECTS/Mol_Feturizer/New_Systems/rnas/2fcx

>  <Rbt.Executable>
rbdock ($Id: //depot/dev/client3/rdock/2013.1/src/exe/rbdock.cxx#4 $)

>  <Rbt.Library>
libRbt.so (2013.1, Build901 2013/11/27)

>  <Rbt.Parameter_File>
/export/apps/rDock/src/rDock_2013.1_src/data/scripts/dock_solv.prm

>  <Rbt.Receptor>
prm/blind_docking_60.prm

>  <SCORE>
-9.0611

>  <SCORE.INTER>
-11.8766

>  <SCORE.INTER.CONST>
1

>  <SCORE.INTER.POLAR>
-1.85359

>  <SCORE.INTER.ROT>
3

>  <SCORE.INTER.SOLV>
13.4019

>  <SCORE.INTER.VDW>
-11.8064

>  <SCORE.INTER.norm>
-0.539847

>  <SCORE.INTRA>
2.81553

>  <SCORE.INTRA.DIHEDRAL>
4.2899

>  <SCORE.INTRA.DIHEDRAL.0>
4.88619

>  <SCORE.INTRA.POLAR>
0

>  <SCORE.INTRA.POLAR.0>
0

>  <SCORE.INTRA.REPUL>
0

>  <SCORE.INTRA.REPUL.0>
0

>  <SCORE.INTRA.SOLV>
3.35257

>  <SCORE.INTRA.SOLV.lig_0>
-73.8187

>  <SCORE.INTRA.VDW>
-1.00571

>  <SCORE.INTRA.VDW.0>
-1.32335

>  <SCORE.INTRA.norm>
0.127978

>  <SCORE.RESTR>
0

>  <SCORE.RESTR.CAVITY>
0

>  <SCORE.RESTR.norm>
0

>  <SCORE.SYSTEM>
0

>  <SCORE.SYSTEM.CONST>
0

>  <SCORE.SYSTEM.DIHEDRAL>
0

>  <SCORE.SYSTEM.SOLV>
0

>  <SCORE.SYSTEM.norm>
0

>  <SCORE.heavy>
22

>  <SCORE.norm>
-0.411868

>  <RMSD>
11.879

$$$$
2fcx_lig
 OpenBabel11021811433D
libRbt.so/2013.1/901 2013/11/27
 22 23  0  0  0  0  0  0  0  0999 V2000
   31.8611   -2.8674   11.5209 N   0  0  0  0  0  0  0  0  0  0  0  0
   30.6739   -0.2089    7.5716 N   0  0  0  0  0  0  0  0  0  0  0  0
   29.1022    5.2664    9.7709 N   0  0  0  0  0  0  0  0  0  0  0  0
   28.0610    0.1918   11.6572 O   0  0  0  0  0  0  0  0  0  0  0  0
   28.7835   -0.7256   10.8314 C   0  0  2  0  0  0  0  0  0  0  0  0
   25.4442    0.8378    8.0261 N   0  0  0  0  0  0  0  0  0  0  0  0
   29.3388   -2.1166   12.7063 O   0  0  0  0  0  0  0  0  0  0  0  0
   29.9191   -1.3667   11.6325 C   0  0  1  0  0  0  0  0  0  0  0  0
   28.1859    0.4212    8.7677 O   0  0  0  0  0  0  0  0  0  0  0  0
   30.7480   -2.2994   10.7464 C   0  0  1  0  0  0  0  0  0  0  0  0
   28.3102    2.5895    9.6480 O   0  0  0  0  0  0  0  0  0  0  0  0
   31.3111   -1.5381    9.5416 C   0  0  0  0  0  0  0  0  0  0  0  0
   28.5346    4.1587    6.3061 O   0  0  0  0  0  0  0  0  0  0  0  0
   30.1540   -0.9466    8.7316 C   0  0  1  0  0  0  0  0  0  0  0  0
   25.9434    3.0145    6.2243 O   0  0  0  0  0  0  0  0  0  0  0  0
   29.2941   -0.0037    9.5785 C   0  0  2  0  0  0  0  0  0  0  0  0
   27.4255    1.4934    9.3508 C   0  0  1  0  0  0  0  0  0  0  0  0
   28.9425    3.1653    8.4872 C   0  0  2  0  0  0  0  0  0  0  0  0
   29.8334    4.3421    8.8914 C   0  0  0  0  0  0  0  0  0  0  0  0
   27.8963    3.6726    7.4909 C   0  0  2  0  0  0  0  0  0  0  0  0
   26.9579    2.5280    7.1050 C   0  0  1  0  0  0  0  0  0  0  0  0
   26.3322    1.9536    8.3788 C   0  0  1  0  0  0  0  0  0  0  0  0
  5  4  1  1  0  0  0
  5  8  1  0  0  0  0
  5 16  1  0  0  0  0
  8  7  1  1  0  0  0
  8 10  1  0  0  0  0
 10  1  1  1  0  0  0
 10 12  1  0  0  0  0
 11 18  1  0  0  0  0
 12 14  1  0  0  0  0
 14  2  1  6  0  0  0
 14 16  1  0  0  0  0
 16  9  1  6  0  0  0
 17  9  1  6  0  0  0
 17 11  1  0  0  0  0
 17 22  1  0  0  0  0
 18 19  1  1  0  0  0
 18 20  1  0  0  0  0
 19  3  1  0  0  0  0
 20 13  1  6  0  0  0
 20 21  1  0  0  0  0
 21 15  1  6  0  0  0
 21 22  1  0  0  0  0
 22  6  1  6  0  0  0
M  END
>  <CHROM.1>
70.07044149,55.11341425,-49.31758177,28.75203148,1.00285004,9.22516436,-1.14454095
-0.25085759,-0.47553883

>  <Name>
2fcx_lig

>  <RI>
224

>  <Rbt.Current_Directory>
/home/itssahil/PROJECTS/Mol_Feturizer/New_Systems/rnas/2fcx

>  <Rbt.Executable>
rbdock ($Id: //depot/dev/client3/rdock/2013.1/src/exe/rbdock.cxx#4 $)

>  <Rbt.Library>
libRbt.so (2013.1, Build901 2013/11/27)

>  <Rbt.Parameter_File>
/export/apps/rDock/src/rDock_2013.1_src/data/scripts/dock_solv.prm

>  <Rbt.Receptor>
prm/blind_docking_100.prm

>  <SCORE>
-17.7983

>  <SCORE.INTER>
-16.9156

>  <SCORE.INTER.CONST>
1

>  <SCORE.INTER.POLAR>
-3.48142

>  <SCORE.INTER.ROT>
3

>  <SCORE.INTER.SOLV>
16.6117

>  <SCORE.INTER.VDW>
-10.8096

>  <SCORE.INTER.norm>
-0.768892

>  <SCORE.INTRA>
-1.19552

>  <SCORE.INTRA.DIHEDRAL>
-3.87563

>  <SCORE.INTRA.DIHEDRAL.0>
4.88619

>  <SCORE.INTRA.POLAR>
0

>  <SCORE.INTRA.POLAR.0>
0

>  <SCORE.INTRA.REPUL>
0

>  <SCORE.INTRA.REPUL.0>
0

>  <SCORE.INTRA.SOLV>
0.393581

>  <SCORE.INTRA.SOLV.lig_0>
-73.8187

>  <SCORE.INTRA.VDW>
0.5455

>  <SCORE.INTRA.VDW.0>
-1.32335

>  <SCORE.INTRA.norm>
-0.0543419

>  <SCORE.RESTR>
0.312849

>  <SCORE.RESTR.CAVITY>
0.312849

>  <SCORE.RESTR.norm>
0.0142204

>  <SCORE.SYSTEM>
0

>  <SCORE.SYSTEM.CONST>
0

>  <SCORE.SYSTEM.DIHEDRAL>
0

>  <SCORE.SYSTEM.SOLV>
0

>  <SCORE.SYSTEM.norm>
0

>  <SCORE.heavy>
22

>  <SCORE.norm>
-0.809013

>  <RMSD>
11.887

$$$$
2fcx_lig
 OpenBabel11021811433D
libRbt.so/2013.1/901 2013/11/27
 22 23  0  0  0  0  0  0  0  0999 V2000
   27.5272   -3.0185   11.0494 N   0  0  0  0  0  0  0  0  0  0  0  0
   26.0436    1.1423    8.9135 N   0  0  0  0  0  0  0  0  0  0  0  0
   29.1083    0.3334    5.5410 N   0  0  0  0  0  0  0  0  0  0  0  0
   30.7357    0.5185   10.0426 O   0  0  0  0  0  0  0  0  0  0  0  0
   29.3975    0.2531   10.4717 C   0  0  2  0  0  0  0  0  0  0  0  0
   29.4169    5.0244   10.0418 N   0  0  0  0  0  0  0  0  0  0  0  0
   30.0625   -1.7553   11.6041 O   0  0  0  0  0  0  0  0  0  0  0  0
   29.1778   -1.2566   10.5938 C   0  0  1  0  0  0  0  0  0  0  0  0
   28.5274    2.3376    9.5612 O   0  0  0  0  0  0  0  0  0  0  0  0
   27.7302   -1.5638   10.9842 C   0  0  1  0  0  0  0  0  0  0  0  0
   29.8783    2.1984    7.6514 O   0  0  0  0  0  0  0  0  0  0  0  0
   26.7582   -0.9660    9.9614 C   0  0  0  0  0  0  0  0  0  0  0  0
   27.5775    4.2605    5.6179 O   0  0  0  0  0  0  0  0  0  0  0  0
   26.9658    0.5495    9.8925 C   0  0  1  0  0  0  0  0  0  0  0  0
   28.4202    6.1193    7.5838 O   0  0  0  0  0  0  0  0  0  0  0  0
   28.4035    0.9068    9.5039 C   0  0  2  0  0  0  0  0  0  0  0  0
   29.7204    2.8365    8.9321 C   0  0  1  0  0  0  0  0  0  0  0  0
   28.8154    2.4814    6.7191 C   0  0  2  0  0  0  0  0  0  0  0  0
   29.0827    1.7946    5.3780 C   0  0  0  0  0  0  0  0  0  0  0  0
   28.6917    3.9876    6.4732 C   0  0  2  0  0  0  0  0  0  0  0  0
   28.4730    4.7086    7.8043 C   0  0  1  0  0  0  0  0  0  0  0  0
   29.6243    4.3562    8.7500 C   0  0  1  0  0  0  0  0  0  0  0  0
  5  4  1  6  0  0  0
  5  8  1  0  0  0  0
  5 16  1  0  0  0  0
  8  7  1  1  0  0  0
  8 10  1  0  0  0  0
 10  1  1  6  0  0  0
 10 12  1  0  0  0  0
 11 18  1  0  0  0  0
 12 14  1  0  0  0  0
 14  2  1  6  0  0  0
 14 16  1  0  0  0  0
 16  9  1  1  0  0  0
 17  9  1  6  0  0  0
 17 11  1  0  0  0  0
 17 22  1  0  0  0  0
 18 19  1  6  0  0  0
 18 20  1  0  0  0  0
 19  3  1  0  0  0  0
 20 13  1  6  0  0  0
 20 21  1  0  0  0  0
 21 15  1  6  0  0  0
 21 22  1  0  0  0  0
 22  6  1  1  0  0  0
M  END
>  <CHROM.1>
73.06312579,46.39097811,62.66542315,28.66220866,1.62424368,8.76445825,1.68478919
1.21638064,2.46527917

>  <Name>
2fcx_lig

>  <RI>
2.63278e+07

>  <Rbt.Current_Directory>
/home/itssahil/PROJECTS/Mol_Feturizer/New_Systems/rnas/2fcx

>  <Rbt.Executable>
rbdock ($Id: //depot/dev/client3/rdock/2013.1/src/exe/rbdock.cxx#4 $)

>  <Rbt.Library>
libRbt.so (2013.1, Build901 2013/11/27)

>  <Rbt.Parameter_File>
/export/apps/rDock/src/rDock_2013.1_src/data/scripts/dock_solv.prm

>  <Rbt.Receptor>
prm/blind_docking_40.prm

>  <SCORE>
-18.3693

>  <SCORE.INTER>
-17.0184

>  <SCORE.INTER.CONST>
1

>  <SCORE.INTER.POLAR>
-2.45259

>  <SCORE.INTER.ROT>
3

>  <SCORE.INTER.SOLV>
13.7275

>  <SCORE.INTER.VDW>
-13.3461

>  <SCORE.INTER.norm>
-0.773563

>  <SCORE.INTRA>
-1.35093

>  <SCORE.INTRA.DIHEDRAL>
-3.16803

>  <SCORE.INTRA.DIHEDRAL.0>
4.88619

>  <SCORE.INTRA.POLAR>
0

>  <SCORE.INTRA.POLAR.0>
0

>  <SCORE.INTRA.REPUL>
0

>  <SCORE.INTRA.REPUL.0>
0

>  <SCORE.INTRA.SOLV>
-0.338976

>  <SCORE.INTRA.SOLV.lig_0>
-73.8187

>  <SCORE.INTRA.VDW>
0.402576

>  <SCORE.INTRA.VDW.0>
-1.32335

>  <SCORE.INTRA.norm>
-0.0614058

>  <SCORE.RESTR>
0

>  <SCORE.RESTR.CAVITY>
0

>  <SCORE.RESTR.norm>
0

>  <SCORE.SYSTEM>
0

>  <SCORE.SYSTEM.CONST>
0

>  <SCORE.SYSTEM.DIHEDRAL>
0

>  <SCORE.SYSTEM.SOLV>
0

>  <SCORE.SYSTEM.norm>
0

>  <SCORE.heavy>
22

>  <SCORE.norm>
-0.834969

>  <RMSD>
11.904

$$$$
2fcx_lig
 OpenBabel11021811433D
libRbt.so/2013.1/901 2013/11/27
 22 23  0  0  0  0  0  0  0  0999 V2000
   31.9781   -3.0090   11.8446 N   0  0  0  0  0  0  0  0  0  0  0  0
   30.7056   -0.4629    7.8479 N   0  0  0  0  0  0  0  0  0  0  0  0
   29.3233    5.1003    9.7860 N   0  0  0  0  0  0  0  0  0  0  0  0
   28.2199    0.1012   11.9932 O   0  0  0  0  0  0  0  0  0  0  0  0
   28.9067   -0.8512   11.1767 C   0  0  2  0  0  0  0  0  0  0  0  0
   25.4958    0.6681    8.4601 N   0  0  0  0  0  0  0  0  0  0  0  0
   29.5010   -2.1886   13.0784 O   0  0  0  0  0  0  0  0  0  0  0  0
   30.0580   -1.4808   11.9645 C   0  0  1  0  0  0  0  0  0  0  0  0
   28.2618    0.2366    9.0954 O   0  0  0  0  0  0  0  0  0  0  0  0
   30.8492   -2.4518   11.0851 C   0  0  1  0  0  0  0  0  0  0  0  0
   28.4686    2.4490    9.8398 O   0  0  0  0  0  0  0  0  0  0  0  0
   31.3853   -1.7366    9.8403 C   0  0  0  0  0  0  0  0  0  0  0  0
   28.5611    3.8171    6.4045 O   0  0  0  0  0  0  0  0  0  0  0  0
   30.2117   -1.1566    9.0458 C   0  0  1  0  0  0  0  0  0  0  0  0
   25.9481    2.7258    6.5119 O   0  0  0  0  0  0  0  0  0  0  0  0
   29.3885   -0.1762    9.8866 C   0  0  2  0  0  0  0  0  0  0  0  0
   27.5504    1.3568    9.6494 C   0  0  1  0  0  0  0  0  0  0  0  0
   29.0549    2.9431    8.6187 C   0  0  2  0  0  0  0  0  0  0  0  0
   29.9860    4.1220    8.9106 C   0  0  0  0  0  0  0  0  0  0  0  0
   27.9716    3.4141    7.6446 C   0  0  2  0  0  0  0  0  0  0  0  0
   26.9946    2.2694    7.3711 C   0  0  1  0  0  0  0  0  0  0  0  0
   26.4204    1.7833    8.7045 C   0  0  1  0  0  0  0  0  0  0  0  0
  5  4  1  1  0  0  0
  5  8  1  0  0  0  0
  5 16  1  0  0  0  0
  8  7  1  1  0  0  0
  8 10  1  0  0  0  0
 10  1  1  1  0  0  0
 10 12  1  0  0  0  0
 11 18  1  0  0  0  0
 12 14  1  0  0  0  0
 14  2  1  6  0  0  0
 14 16  1  0  0  0  0
 16  9  1  6  0  0  0
 17  9  1  6  0  0  0
 17 11  1  0  0  0  0
 17 22  1  0  0  0  0
 18 19  1  1  0  0  0
 18 20  1  0  0  0  0
 19  3  1  0  0  0  0
 20 13  1  6  0  0  0
 20 21  1  0  0  0  0
 21 15  1  6  0  0  0
 21 22  1  0  0  0  0
 22  6  1  6  0  0  0
M  END
>  <CHROM.1>
71.45938758,55.94617360,-48.37554452,28.85153961,0.81684472,9.48817365,-1.14926937
-0.16456959,-0.54429024

>  <Name>
2fcx_lig

>  <RI>
224

>  <Rbt.Current_Directory>
/home/itssahil/PROJECTS/Mol_Feturizer/New_Systems/rnas/2fcx

>  <Rbt.Executable>
rbdock ($Id: //depot/dev/client3/rdock/2013.1/src/exe/rbdock.cxx#4 $)

>  <Rbt.Library>
libRbt.so (2013.1, Build901 2013/11/27)

>  <Rbt.Parameter_File>
/export/apps/rDock/src/rDock_2013.1_src/data/scripts/dock_solv.prm

>  <Rbt.Receptor>
prm/blind_docking_60.prm

>  <SCORE>
-18.9018

>  <SCORE.INTER>
-18.1735

>  <SCORE.INTER.CONST>
1

>  <SCORE.INTER.POLAR>
-3.66487

>  <SCORE.INTER.ROT>
3

>  <SCORE.INTER.SOLV>
18.0728

>  <SCORE.INTER.VDW>
-11.5237

>  <SCORE.INTER.norm>
-0.826069

>  <SCORE.INTRA>
-1.20088

>  <SCORE.INTRA.DIHEDRAL>
-3.70101

>  <SCORE.INTRA.DIHEDRAL.0>
4.88619

>  <SCORE.INTRA.POLAR>
0

>  <SCORE.INTRA.POLAR.0>
0

>  <SCORE.INTRA.REPUL>
0

>  <SCORE.INTRA.REPUL.0>
0

>  <SCORE.INTRA.SOLV>
0.411447

>  <SCORE.INTRA.SOLV.lig_0>
-73.8187

>  <SCORE.INTRA.VDW>
0.443897

>  <SCORE.INTRA.VDW.0>
-1.32335

>  <SCORE.INTRA.norm>
-0.0545857

>  <SCORE.RESTR>
0.472616

>  <SCORE.RESTR.CAVITY>
0.472616

>  <SCORE.RESTR.norm>
0.0214825

>  <SCORE.SYSTEM>
0

>  <SCORE.SYSTEM.CONST>
0

>  <SCORE.SYSTEM.DIHEDRAL>
0

>  <SCORE.SYSTEM.SOLV>
0

>  <SCORE.SYSTEM.norm>
0

>  <SCORE.heavy>
22

>  <SCORE.norm>
-0.859172

>  <RMSD>
11.907

$$$$
2fcx_lig
 OpenBabel11021811433D
libRbt.so/2013.1/901 2013/11/27
 22 23  0  0  0  0  0  0  0  0999 V2000
   31.9587   -3.0316   11.8519 N   0  0  0  0  0  0  0  0  0  0  0  0
   30.7252   -0.4648    7.8563 N   0  0  0  0  0  0  0  0  0  0  0  0
   29.3179    5.1031    9.7806 N   0  0  0  0  0  0  0  0  0  0  0  0
   28.2249    0.1082   11.9915 O   0  0  0  0  0  0  0  0  0  0  0  0
   28.9079   -0.8475   11.1756 C   0  0  2  0  0  0  0  0  0  0  0  0
   25.4976    0.6433    8.5132 N   0  0  0  0  0  0  0  0  0  0  0  0
   29.4826   -2.1947   13.0764 O   0  0  0  0  0  0  0  0  0  0  0  0
   30.0504   -1.4884   11.9670 C   0  0  1  0  0  0  0  0  0  0  0  0
   28.2813    0.2510    9.0943 O   0  0  0  0  0  0  0  0  0  0  0  0
   30.8379   -2.4634   11.0886 C   0  0  1  0  0  0  0  0  0  0  0  0
   28.4749    2.4705    9.8208 O   0  0  0  0  0  0  0  0  0  0  0  0
   31.3854   -1.7491    9.8483 C   0  0  0  0  0  0  0  0  0  0  0  0
   28.4798    3.8177    6.3760 O   0  0  0  0  0  0  0  0  0  0  0  0
   30.2202   -1.1577    9.0500 C   0  0  1  0  0  0  0  0  0  0  0  0
   25.8838    2.6940    6.5435 O   0  0  0  0  0  0  0  0  0  0  0  0
   29.4010   -0.1730    9.8896 C   0  0  2  0  0  0  0  0  0  0  0  0
   27.5671    1.3655    9.6559 C   0  0  1  0  0  0  0  0  0  0  0  0
   29.0298    2.9642    8.5849 C   0  0  2  0  0  0  0  0  0  0  0  0
   29.9515    4.1566    8.8505 C   0  0  0  0  0  0  0  0  0  0  0  0
   27.9210    3.4152    7.6303 C   0  0  2  0  0  0  0  0  0  0  0  0
   26.9533    2.2565    7.3839 C   0  0  1  0  0  0  0  0  0  0  0  0
   26.4127    1.7716    8.7317 C   0  0  1  0  0  0  0  0  0  0  0  0
  5  4  1  1  0  0  0
  5  8  1  0  0  0  0
  5 16  1  0  0  0  0
  8  7  1  1  0  0  0
  8 10  1  0  0  0  0
 10  1  1  1  0  0  0
 10 12  1  0  0  0  0
 11 18  1  0  0  0  0
 12 14  1  0  0  0  0
 14  2  1  6  0  0  0
 14 16  1  0  0  0  0
 16  9  1  6  0  0  0
 17  9  1  6  0  0  0
 17 11  1  0  0  0  0
 17 22  1  0  0  0  0
 18 19  1  1  0  0  0
 18 20  1  0  0  0  0
 19  3  1  0  0  0  0
 20 13  1  6  0  0  0
 20 21  1  0  0  0  0
 21 15  1  6  0  0  0
 21 22  1  0  0  0  0
 22  6  1  6  0  0  0
M  END
>  <CHROM.1>
70.78273209,58.04554870,-45.86724004,28.83856796,0.81572588,9.48804948,-1.14827974
-0.15175885,-0.54821337

>  <Name>
2fcx_lig

>  <RI>
224

>  <Rbt.Current_Directory>
/home/itssahil/PROJECTS/Mol_Feturizer/New_Systems/rnas/2fcx

>  <Rbt.Executable>
rbdock ($Id: //depot/dev/client3/rdock/2013.1/src/exe/rbdock.cxx#4 $)

>  <Rbt.Library>
libRbt.so (2013.1, Build901 2013/11/27)

>  <Rbt.Parameter_File>
/export/apps/rDock/src/rDock_2013.1_src/data/scripts/dock_solv.prm

>  <Rbt.Receptor>
prm/blind_docking_60.prm

>  <SCORE>
-18.9773

>  <SCORE.INTER>
-18.294

>  <SCORE.INTER.CONST>
1

>  <SCORE.INTER.POLAR>
-3.66464

>  <SCORE.INTER.ROT>
3

>  <SCORE.INTER.SOLV>
18.0722

>  <SCORE.INTER.VDW>
-11.6046

>  <SCORE.INTER.norm>
-0.831544

>  <SCORE.INTRA>
-1.17316

>  <SCORE.INTRA.DIHEDRAL>
-3.61837

>  <SCORE.INTRA.DIHEDRAL.0>
4.88619

>  <SCORE.INTRA.POLAR>
0

>  <SCORE.INTRA.POLAR.0>
0

>  <SCORE.INTRA.REPUL>
0

>  <SCORE.INTRA.REPUL.0>
0

>  <SCORE.INTRA.SOLV>
0.351743

>  <SCORE.INTRA.SOLV.lig_0>
-73.8187

>  <SCORE.INTRA.VDW>
0.460155

>  <SCORE.INTRA.VDW.0>
-1.32335

>  <SCORE.INTRA.norm>
-0.0533254

>  <SCORE.RESTR>
0.489802

>  <SCORE.RESTR.CAVITY>
0.489802

>  <SCORE.RESTR.norm>
0.0222637

>  <SCORE.SYSTEM>
0

>  <SCORE.SYSTEM.CONST>
0

>  <SCORE.SYSTEM.DIHEDRAL>
0

>  <SCORE.SYSTEM.SOLV>
0

>  <SCORE.SYSTEM.norm>
0

>  <SCORE.heavy>
22

>  <SCORE.norm>
-0.862606

>  <RMSD>
11.910

$$$$
2fcx_lig
 OpenBabel11021811433D
libRbt.so/2013.1/901 2013/11/27
 22 23  0  0  0  0  0  0  0  0999 V2000
   27.5228   -3.0406   11.0416 N   0  0  0  0  0  0  0  0  0  0  0  0
   26.0310    1.1169    8.9052 N   0  0  0  0  0  0  0  0  0  0  0  0
   29.0955    0.2895    5.5308 N   0  0  0  0  0  0  0  0  0  0  0  0
   30.7273    0.4954   10.0184 O   0  0  0  0  0  0  0  0  0  0  0  0
   29.3906    0.2304   10.4527 C   0  0  2  0  0  0  0  0  0  0  0  0
   29.4007    5.0041   10.0122 N   0  0  0  0  0  0  0  0  0  0  0  0
   30.0599   -1.7763   11.5856 O   0  0  0  0  0  0  0  0  0  0  0  0
   29.1715   -1.2791   10.5777 C   0  0  1  0  0  0  0  0  0  0  0  0
   28.5170    2.3135    9.5424 O   0  0  0  0  0  0  0  0  0  0  0  0
   27.7254   -1.5860   10.9737 C   0  0  1  0  0  0  0  0  0  0  0  0
   29.8739    2.1669    7.6374 O   0  0  0  0  0  0  0  0  0  0  0  0
   26.7496   -0.9898    9.9536 C   0  0  0  0  0  0  0  0  0  0  0  0
   27.5760    4.2151    5.5866 O   0  0  0  0  0  0  0  0  0  0  0  0
   26.9568    0.5257    9.8817 C   0  0  1  0  0  0  0  0  0  0  0  0
   28.4098    6.0851    7.5457 O   0  0  0  0  0  0  0  0  0  0  0  0
   28.3931    0.8826    9.4875 C   0  0  2  0  0  0  0  0  0  0  0  0
   29.7110    2.8112    8.9144 C   0  0  1  0  0  0  0  0  0  0  0  0
   28.8135    2.4436    6.7005 C   0  0  2  0  0  0  0  0  0  0  0  0
   29.0859    1.7505    5.3637 C   0  0  0  0  0  0  0  0  0  0  0  0
   28.6881    3.9483    6.4467 C   0  0  2  0  0  0  0  0  0  0  0  0
   28.4641    4.6756    7.7735 C   0  0  1  0  0  0  0  0  0  0  0  0
   29.6131    4.3297    8.7244 C   0  0  1  0  0  0  0  0  0  0  0  0
  5  4  1  6  0  0  0
  5  8  1  0  0  0  0
  5 16  1  0  0  0  0
  8  7  1  1  0  0  0
  8 10  1  0  0  0  0
 10  1  1  6  0  0  0
 10 12  1  0  0  0  0
 11 18  1  0  0  0  0
 12 14  1  0  0  0  0
 14  2  1  6  0  0  0
 14 16  1  0  0  0  0
 16  9  1  1  0  0  0
 17  9  1  6  0  0  0
 17 11  1  0  0  0  0
 17 22  1  0  0  0  0
 18 19  1  6  0  0  0
 18 20  1  0  0  0  0
 19  3  1  0  0  0  0
 20 13  1  6  0  0  0
 20 21  1  0  0  0  0
 21 15  1  6  0  0  0
 21 22  1  0  0  0  0
 22  6  1  1  0  0  0
M  END
>  <CHROM.1>
72.75750792,46.17406331,63.41832017,28.65491069,1.59522731,8.74541161,1.68685841
1.22161222,2.46087137

>  <Name>
2fcx_lig

>  <RI>
2.63278e+07

>  <Rbt.Current_Directory>
/home/itssahil/PROJECTS/Mol_Feturizer/New_Systems/rnas/2fcx

>  <Rbt.Executable>
rbdock ($Id: //depot/dev/client3/rdock/2013.1/src/exe/rbdock.cxx#4 $)

>  <Rbt.Library>
libRbt.so (2013.1, Build901 2013/11/27)

>  <Rbt.Parameter_File>
/export/apps/rDock/src/rDock_2013.1_src/data/scripts/dock_solv.prm

>  <Rbt.Receptor>
prm/blind_docking_40.prm

>  <SCORE>
-18.3884

>  <SCORE.INTER>
-17.0609

>  <SCORE.INTER.CONST>
1

>  <SCORE.INTER.POLAR>
-2.46107

>  <SCORE.INTER.ROT>
3

>  <SCORE.INTER.SOLV>
13.5705

>  <SCORE.INTER.VDW>
-13.2939

>  <SCORE.INTER.norm>
-0.775496

>  <SCORE.INTRA>
-1.3277

>  <SCORE.INTRA.DIHEDRAL>
-3.16112

>  <SCORE.INTRA.DIHEDRAL.0>
4.88619

>  <SCORE.INTRA.POLAR>
0

>  <SCORE.INTRA.POLAR.0>
0

>  <SCORE.INTRA.REPUL>
0

>  <SCORE.INTRA.REPUL.0>
0

>  <SCORE.INTRA.SOLV>
-0.352911

>  <SCORE.INTRA.SOLV.lig_0>
-73.8187

>  <SCORE.INTRA.VDW>
0.429315

>  <SCORE.INTRA.VDW.0>
-1.32335

>  <SCORE.INTRA.norm>
-0.06035

>  <SCORE.RESTR>
0.000260576

>  <SCORE.RESTR.CAVITY>
0.000260576

>  <SCORE.RESTR.norm>
1.18443e-05

>  <SCORE.SYSTEM>
0

>  <SCORE.SYSTEM.CONST>
0

>  <SCORE.SYSTEM.DIHEDRAL>
0

>  <SCORE.SYSTEM.SOLV>
0

>  <SCORE.SYSTEM.norm>
0

>  <SCORE.heavy>
22

>  <SCORE.norm>
-0.835834

>  <RMSD>
11.932

$$$$
2fcx_lig
 OpenBabel11021811433D
libRbt.so/2013.1/901 2013/11/27
 22 23  0  0  0  0  0  0  0  0999 V2000
   27.5040   -3.0396   11.0628 N   0  0  0  0  0  0  0  0  0  0  0  0
   26.0288    1.1182    8.9155 N   0  0  0  0  0  0  0  0  0  0  0  0
   29.2167    0.2495    5.5699 N   0  0  0  0  0  0  0  0  0  0  0  0
   30.7237    0.4780   10.0240 O   0  0  0  0  0  0  0  0  0  0  0  0
   29.3864    0.2207   10.4610 C   0  0  2  0  0  0  0  0  0  0  0  0
   29.4056    4.9949   10.0182 N   0  0  0  0  0  0  0  0  0  0  0  0
   30.0478   -1.7856   11.5992 O   0  0  0  0  0  0  0  0  0  0  0  0
   29.1604   -1.2874   10.5911 C   0  0  1  0  0  0  0  0  0  0  0  0
   28.5213    2.3051    9.5454 O   0  0  0  0  0  0  0  0  0  0  0  0
   27.7134   -1.5862   10.9901 C   0  0  1  0  0  0  0  0  0  0  0  0
   29.9261    2.1380    7.6771 O   0  0  0  0  0  0  0  0  0  0  0  0
   26.7390   -0.9886    9.9694 C   0  0  0  0  0  0  0  0  0  0  0  0
   27.6917    4.1816    5.5529 O   0  0  0  0  0  0  0  0  0  0  0  0
   26.9532    0.5257    9.8926 C   0  0  1  0  0  0  0  0  0  0  0  0
   28.4838    6.0622    7.5192 O   0  0  0  0  0  0  0  0  0  0  0  0
   28.3906    0.8745    9.4952 C   0  0  2  0  0  0  0  0  0  0  0  0
   29.7335    2.7925    8.9448 C   0  0  1  0  0  0  0  0  0  0  0  0
   28.8914    2.4126    6.7112 C   0  0  2  0  0  0  0  0  0  0  0  0
   29.1948    1.7084    5.3869 C   0  0  0  0  0  0  0  0  0  0  0  0
   28.7799    3.9160    6.4433 C   0  0  2  0  0  0  0  0  0  0  0  0
   28.5254    4.6541    7.7586 C   0  0  1  0  0  0  0  0  0  0  0  0
   29.6478    4.3100    8.7413 C   0  0  1  0  0  0  0  0  0  0  0  0
  5  4  1  6  0  0  0
  5  8  1  0  0  0  0
  5 16  1  0  0  0  0
  8  7  1  1  0  0  0
  8 10  1  0  0  0  0
 10  1  1  6  0  0  0
 10 12  1  0  0  0  0
 11 18  1  0  0  0  0
 12 14  1  0  0  0  0
 14  2  1  6  0  0  0
 14 16  1  0  0  0  0
 16  9  1  1  0  0  0
 17  9  1  6  0  0  0
 17 11  1  0  0  0  0
 17 22  1  0  0  0  0
 18 19  1  6  0  0  0
 18 20  1  0  0  0  0
 19  3  1  0  0  0  0
 20 13  1  6  0  0  0
 20 21  1  0  0  0  0
 21 15  1  6  0  0  0
 21 22  1  0  0  0  0
 22  6  1  1  0  0  0
M  END
>  <CHROM.1>
71.23789219,46.04550735,62.41464173,28.68667714,1.57878456,8.75475925,1.74891293
1.26004642,2.39688149

>  <Name>
2fcx_lig

>  <RI>
2.63278e+07

>  <Rbt.Current_Directory>
/home/itssahil/PROJECTS/Mol_Feturizer/New_Systems/rnas/2fcx

>  <Rbt.Executable>
rbdock ($Id: //depot/dev/client3/rdock/2013.1/src/exe/rbdock.cxx#4 $)

>  <Rbt.Library>
libRbt.so (2013.1, Build901 2013/11/27)

>  <Rbt.Parameter_File>
/export/apps/rDock/src/rDock_2013.1_src/data/scripts/dock_solv.prm

>  <Rbt.Receptor>
prm/blind_docking_40.prm

>  <SCORE>
-18.2891

>  <SCORE.INTER>
-17.0024

>  <SCORE.INTER.CONST>
1

>  <SCORE.INTER.POLAR>
-2.43768

>  <SCORE.INTER.ROT>
3

>  <SCORE.INTER.SOLV>
13.8321

>  <SCORE.INTER.VDW>
-13.4201

>  <SCORE.INTER.norm>
-0.772838

>  <SCORE.INTRA>
-1.28961

>  <SCORE.INTRA.DIHEDRAL>
-3.33379

>  <SCORE.INTRA.DIHEDRAL.0>
4.88619

>  <SCORE.INTRA.POLAR>
0

>  <SCORE.INTRA.POLAR.0>
0

>  <SCORE.INTRA.REPUL>
0

>  <SCORE.INTRA.REPUL.0>
0

>  <SCORE.INTRA.SOLV>
-0.403578

>  <SCORE.INTRA.SOLV.lig_0>
-73.8187

>  <SCORE.INTRA.VDW>
0.579077

>  <SCORE.INTRA.VDW.0>
-1.32335

>  <SCORE.INTRA.norm>
-0.0586185

>  <SCORE.RESTR>
0.00291206

>  <SCORE.RESTR.CAVITY>
0.00291206

>  <SCORE.RESTR.norm>
0.000132367

>  <SCORE.SYSTEM>
0

>  <SCORE.SYSTEM.CONST>
0

>  <SCORE.SYSTEM.DIHEDRAL>
0

>  <SCORE.SYSTEM.SOLV>
0

>  <SCORE.SYSTEM.norm>
0

>  <SCORE.heavy>
22

>  <SCORE.norm>
-0.831325

>  <RMSD>
11.940

$$$$
2fcx_lig
 OpenBabel11021811433D
libRbt.so/2013.1/901 2013/11/27
 22 23  0  0  0  0  0  0  0  0999 V2000
   27.5202   -3.0525   11.0294 N   0  0  0  0  0  0  0  0  0  0  0  0
   26.0765    1.1496    8.9479 N   0  0  0  0  0  0  0  0  0  0  0  0
   29.6298    0.0996    5.7958 N   0  0  0  0  0  0  0  0  0  0  0  0
   30.7651    0.4599   10.0533 O   0  0  0  0  0  0  0  0  0  0  0  0
   29.4254    0.2045   10.4839 C   0  0  2  0  0  0  0  0  0  0  0  0
   29.3787    5.0400    9.9744 N   0  0  0  0  0  0  0  0  0  0  0  0
   30.0714   -1.8245   11.5902 O   0  0  0  0  0  0  0  0  0  0  0  0
   29.1891   -1.3040   10.5890 C   0  0  1  0  0  0  0  0  0  0  0  0
   28.5758    2.3093    9.6010 O   0  0  0  0  0  0  0  0  0  0  0  0
   27.7394   -1.5995   10.9807 C   0  0  1  0  0  0  0  0  0  0  0  0
   30.0589    2.0863    7.8003 O   0  0  0  0  0  0  0  0  0  0  0  0
   26.7708   -0.9788    9.9684 C   0  0  0  0  0  0  0  0  0  0  0  0
   27.8668    3.9682    5.4906 O   0  0  0  0  0  0  0  0  0  0  0  0
   26.9952    0.5350    9.9166 C   0  0  1  0  0  0  0  0  0  0  0  0
   28.5352    5.9612    7.3909 O   0  0  0  0  0  0  0  0  0  0  0  0
   28.4356    0.8807    9.5273 C   0  0  2  0  0  0  0  0  0  0  0  0
   29.8001    2.7967    9.0254 C   0  0  1  0  0  0  0  0  0  0  0  0
   29.0584    2.2879    6.7818 C   0  0  2  0  0  0  0  0  0  0  0  0
   29.4314    1.5278    5.5072 C   0  0  0  0  0  0  0  0  0  0  0  0
   28.9236    3.7732    6.4354 C   0  0  2  0  0  0  0  0  0  0  0  0
   28.5991    4.5680    7.7014 C   0  0  1  0  0  0  0  0  0  0  0  0
   29.6882    4.3000    8.7435 C   0  0  1  0  0  0  0  0  0  0  0  0
  5  4  1  6  0  0  0
  5  8  1  0  0  0  0
  5 16  1  0  0  0  0
  8  7  1  1  0  0  0
  8 10  1  0  0  0  0
 10  1  1  6  0  0  0
 10 12  1  0  0  0  0
 11 18  1  0  0  0  0
 12 14  1  0  0  0  0
 14  2  1  6  0  0  0
 14 16  1  0  0  0  0
 16  9  1  1  0  0  0
 17  9  1  6  0  0  0
 17 11  1  0  0  0  0
 17 22  1  0  0  0  0
 18 19  1  6  0  0  0
 18 20  1  0  0  0  0
 19  3  1  0  0  0  0
 20 13  1  6  0  0  0
 20 21  1  0  0  0  0
 21 15  1  6  0  0  0
 21 22  1  0  0  0  0
 22  6  1  1  0  0  0
M  END
>  <CHROM.1>
70.50159534,41.69830865,55.93891796,28.77202301,1.52919773,8.77530792,1.93442830
1.37950644,2.21069550

>  <Name>
2fcx_lig

>  <RI>
224

>  <Rbt.Current_Directory>
/home/itssahil/PROJECTS/Mol_Feturizer/New_Systems/rnas/2fcx

>  <Rbt.Executable>
rbdock ($Id: //depot/dev/client3/rdock/2013.1/src/exe/rbdock.cxx#4 $)

>  <Rbt.Library>
libRbt.so (2013.1, Build901 2013/11/27)

>  <Rbt.Parameter_File>
/export/apps/rDock/src/rDock_2013.1_src/data/scripts/dock_solv.prm

>  <Rbt.Receptor>
prm/blind_docking_60.prm

>  <SCORE>
-18.2255

>  <SCORE.INTER>
-17.5003

>  <SCORE.INTER.CONST>
1

>  <SCORE.INTER.POLAR>
-2.45738

>  <SCORE.INTER.ROT>
3

>  <SCORE.INTER.SOLV>
13.6711

>  <SCORE.INTER.VDW>
-13.6326

>  <SCORE.INTER.norm>
-0.795469

>  <SCORE.INTRA>
-0.725203

>  <SCORE.INTRA.DIHEDRAL>
-2.75572

>  <SCORE.INTRA.DIHEDRAL.0>
4.88619

>  <SCORE.INTRA.POLAR>
0

>  <SCORE.INTRA.POLAR.0>
0

>  <SCORE.INTRA.REPUL>
0

>  <SCORE.INTRA.REPUL.0>
0

>  <SCORE.INTRA.SOLV>
-0.267835

>  <SCORE.INTRA.SOLV.lig_0>
-73.8187

>  <SCORE.INTRA.VDW>
0.786575

>  <SCORE.INTRA.VDW.0>
-1.32335

>  <SCORE.INTRA.norm>
-0.0329638

>  <SCORE.RESTR>
0

>  <SCORE.RESTR.CAVITY>
0

>  <SCORE.RESTR.norm>
0

>  <SCORE.SYSTEM>
0

>  <SCORE.SYSTEM.CONST>
0

>  <SCORE.SYSTEM.DIHEDRAL>
0

>  <SCORE.SYSTEM.SOLV>
0

>  <SCORE.SYSTEM.norm>
0

>  <SCORE.heavy>
22

>  <SCORE.norm>
-0.828433

>  <RMSD>
11.945

$$$$
2fcx_lig
 OpenBabel11021811433D
libRbt.so/2013.1/901 2013/11/27
 22 23  0  0  0  0  0  0  0  0999 V2000
   27.2409    4.2349    0.6827 N   0  0  0  0  0  0  0  0  0  0  0  0
   25.5392    4.4821    5.2782 N   0  0  0  0  0  0  0  0  0  0  0  0
   29.0550    4.3508   10.1352 N   0  0  0  0  0  0  0  0  0  0  0  0
   29.2892    1.5672    4.2192 O   0  0  0  0  0  0  0  0  0  0  0  0
   28.0509    2.0848    3.7251 C   0  0  2  0  0  0  0  0  0  0  0  0
   27.2889   -0.4756    7.0347 N   0  0  0  0  0  0  0  0  0  0  0  0
   28.7868    1.9204    1.4471 O   0  0  0  0  0  0  0  0  0  0  0  0
   28.2871    2.8466    2.4189 C   0  0  1  0  0  0  0  0  0  0  0  0
   27.0243    2.1617    5.9323 O   0  0  0  0  0  0  0  0  0  0  0  0
   26.9842    3.4683    1.9108 C   0  0  1  0  0  0  0  0  0  0  0  0
   28.5257    3.0099    7.5192 O   0  0  0  0  0  0  0  0  0  0  0  0
   26.3837    4.4002    2.9687 C   0  0  0  0  0  0  0  0  0  0  0  0
   26.0178    2.9401   10.2370 O   0  0  0  0  0  0  0  0  0  0  0  0
   26.1134    3.6043    4.2486 C   0  0  1  0  0  0  0  0  0  0  0  0
   26.2890    0.1827    9.6426 O   0  0  0  0  0  0  0  0  0  0  0  0
   27.3915    2.9621    4.7963 C   0  0  2  0  0  0  0  0  0  0  0  0
   28.1336    1.8342    6.7868 C   0  0  1  0  0  0  0  0  0  0  0  0
   27.5069    3.5176    8.4041 C   0  0  2  0  0  0  0  0  0  0  0  0
   28.0206    4.7414    9.1657 C   0  0  0  0  0  0  0  0  0  0  0  0
   27.0908    2.4545    9.4244 C   0  0  2  0  0  0  0  0  0  0  0  0
   26.6180    1.1976    8.6921 C   0  0  1  0  0  0  0  0  0  0  0  0
   27.7364    0.7196    7.7623 C   0  0  1  0  0  0  0  0  0  0  0  0
  5  4  1  1  0  0  0
  5  8  1  0  0  0  0
  5 16  1  0  0  0  0
  8  7  1  6  0  0  0
  8 10  1  0  0  0  0
 10  1  1  6  0  0  0
 10 12  1  0  0  0  0
 11 18  1  0  0  0  0
 12 14  1  0  0  0  0
 14  2  1  1  0  0  0
 14 16  1  0  0  0  0
 16  9  1  1  0  0  0
 17  9  1  6  0  0  0
 17 11  1  0  0  0  0
 17 22  1  0  0  0  0
 18 19  1  1  0  0  0
 18 20  1  0  0  0  0
 19  3  1  0  0  0  0
 20 13  1  6  0  0  0
 20 21  1  0  0  0  0
 21 15  1  1  0  0  0
 21 22  1  0  0  0  0
 22  6  1  6  0  0  0
M  END
>  <CHROM.1>
77.65991093,73.04636140,-69.36479544,27.43601540,2.62528435,6.04459102,1.31137191
1.38267234,-1.20363154

>  <Name>
2fcx_lig

>  <RI>
224

>  <Rbt.Current_Directory>
/home/itssahil/PROJECTS/Mol_Feturizer/New_Systems/rnas/2fcx

>  <Rbt.Executable>
rbdock ($Id: //depot/dev/client3/rdock/2013.1/src/exe/rbdock.cxx#4 $)

>  <Rbt.Library>
libRbt.so (2013.1, Build901 2013/11/27)

>  <Rbt.Parameter_File>
/export/apps/rDock/src/rDock_2013.1_src/data/scripts/dock_solv.prm

>  <Rbt.Receptor>
prm/blind_docking_60.prm

>  <SCORE>
-10.5119

>  <SCORE.INTER>
-10.1121

>  <SCORE.INTER.CONST>
1

>  <SCORE.INTER.POLAR>
-1.35712

>  <SCORE.INTER.ROT>
3

>  <SCORE.INTER.SOLV>
12.278

>  <SCORE.INTER.VDW>
-11.9103

>  <SCORE.INTER.norm>
-0.459642

>  <SCORE.INTRA>
-0.399751

>  <SCORE.INTRA.DIHEDRAL>
-2.32256

>  <SCORE.INTRA.DIHEDRAL.0>
4.88619

>  <SCORE.INTRA.POLAR>
0

>  <SCORE.INTRA.POLAR.0>
0

>  <SCORE.INTRA.REPUL>
0

>  <SCORE.INTRA.REPUL.0>
0

>  <SCORE.INTRA.SOLV>
1.29026

>  <SCORE.INTRA.SOLV.lig_0>
-73.8187

>  <SCORE.INTRA.VDW>
0.116401

>  <SCORE.INTRA.VDW.0>
-1.32335

>  <SCORE.INTRA.norm>
-0.0181705

>  <SCORE.RESTR>
0

>  <SCORE.RESTR.CAVITY>
0

>  <SCORE.RESTR.norm>
0

>  <SCORE.SYSTEM>
0

>  <SCORE.SYSTEM.CONST>
0

>  <SCORE.SYSTEM.DIHEDRAL>
0

>  <SCORE.SYSTEM.SOLV>
0

>  <SCORE.SYSTEM.norm>
0

>  <SCORE.heavy>
22

>  <SCORE.norm>
-0.477812

>  <RMSD>
11.962

$$$$
2fcx_lig
 OpenBabel11021811433D
libRbt.so/2013.1/901 2013/11/27
 22 23  0  0  0  0  0  0  0  0999 V2000
   27.5130   -3.0414   11.0523 N   0  0  0  0  0  0  0  0  0  0  0  0
   26.0352    1.1235    8.9205 N   0  0  0  0  0  0  0  0  0  0  0  0
   27.9292    1.7302    4.5166 N   0  0  0  0  0  0  0  0  0  0  0  0
   30.7322    0.4775   10.0166 O   0  0  0  0  0  0  0  0  0  0  0  0
   29.3957    0.2197   10.4558 C   0  0  2  0  0  0  0  0  0  0  0  0
   29.4121    5.0020    9.9951 N   0  0  0  0  0  0  0  0  0  0  0  0
   30.0586   -1.7903   11.5866 O   0  0  0  0  0  0  0  0  0  0  0  0
   29.1692   -1.2887   10.5820 C   0  0  1  0  0  0  0  0  0  0  0  0
   28.5297    2.3071    9.5483 O   0  0  0  0  0  0  0  0  0  0  0  0
   27.7230   -1.5879   10.9833 C   0  0  1  0  0  0  0  0  0  0  0  0
   29.8966    2.1404    7.6520 O   0  0  0  0  0  0  0  0  0  0  0  0
   26.7466   -0.9868    9.9666 C   0  0  0  0  0  0  0  0  0  0  0  0
   27.6103    4.1683    5.5683 O   0  0  0  0  0  0  0  0  0  0  0  0
   26.9614    0.5276    9.8937 C   0  0  1  0  0  0  0  0  0  0  0  0
   28.4346    6.0580    7.5124 O   0  0  0  0  0  0  0  0  0  0  0  0
   28.3981    0.8768    9.4942 C   0  0  2  0  0  0  0  0  0  0  0  0
   29.7273    2.7979    8.9215 C   0  0  1  0  0  0  0  0  0  0  0  0
   28.8412    2.4079    6.7068 C   0  0  2  0  0  0  0  0  0  0  0  0
   29.1203    1.7010    5.3786 C   0  0  0  0  0  0  0  0  0  0  0  0
   28.7177    3.9099    6.4369 C   0  0  2  0  0  0  0  0  0  0  0  0
   28.4872    4.6509    7.7550 C   0  0  1  0  0  0  0  0  0  0  0  0
   29.6310    4.3144    8.7154 C   0  0  1  0  0  0  0  0  0  0  0  0
  5  4  1  6  0  0  0
  5  8  1  0  0  0  0
  5 16  1  0  0  0  0
  8  7  1  1  0  0  0
  8 10  1  0  0  0  0
 10  1  1  6  0  0  0
 10 12  1  0  0  0  0
 11 18  1  0  0  0  0
 12 14  1  0  0  0  0
 14  2  1  6  0  0  0
 14 16  1  0  0  0  0
 16  9  1  1  0  0  0
 17  9  1  6  0  0  0
 17 11  1  0  0  0  0
 17 22  1  0  0  0  0
 18 19  1  6  0  0  0
 18 20  1  0  0  0  0
 19  3  1  0  0  0  0
 20 13  1  6  0  0  0
 20 21  1  0  0  0  0
 21 15  1  6  0  0  0
 21 22  1  0  0  0  0
 22  6  1  1  0  0  0
M  END
>  <CHROM.1>
72.47427159,45.51055478,168.00060774,28.61423496,1.64475309,8.70013087,1.62458551
1.06297122,2.47305646

>  <Name>
2fcx_lig

>  <RI>
2.63278e+07

>  <Rbt.Current_Directory>
/home/itssahil/PROJECTS/Mol_Feturizer/New_Systems/rnas/2fcx

>  <Rbt.Executable>
rbdock ($Id: //depot/dev/client3/rdock/2013.1/src/exe/rbdock.cxx#4 $)

>  <Rbt.Library>
libRbt.so (2013.1, Build901 2013/11/27)

>  <Rbt.Parameter_File>
/export/apps/rDock/src/rDock_2013.1_src/data/scripts/dock_solv.prm

>  <Rbt.Receptor>
prm/blind_docking_40.prm

>  <SCORE>
-17.7714

>  <SCORE.INTER>
-17.4685

>  <SCORE.INTER.CONST>
1

>  <SCORE.INTER.POLAR>
-2.47082

>  <SCORE.INTER.ROT>
3

>  <SCORE.INTER.SOLV>
13.4538

>  <SCORE.INTER.VDW>
-13.4942

>  <SCORE.INTER.norm>
-0.794022

>  <SCORE.INTRA>
-0.305123

>  <SCORE.INTRA.DIHEDRAL>
-2.6407

>  <SCORE.INTRA.DIHEDRAL.0>
4.88619

>  <SCORE.INTRA.POLAR>
0

>  <SCORE.INTRA.POLAR.0>
0

>  <SCORE.INTRA.REPUL>
0

>  <SCORE.INTRA.REPUL.0>
0

>  <SCORE.INTRA.SOLV>
0.402671

>  <SCORE.INTRA.SOLV.lig_0>
-73.8187

>  <SCORE.INTRA.VDW>
0.813892

>  <SCORE.INTRA.VDW.0>
-1.32335

>  <SCORE.INTRA.norm>
-0.0138692

>  <SCORE.RESTR>
0.00225388

>  <SCORE.RESTR.CAVITY>
0.00225388

>  <SCORE.RESTR.norm>
0.000102449

>  <SCORE.SYSTEM>
0

>  <SCORE.SYSTEM.CONST>
0

>  <SCORE.SYSTEM.DIHEDRAL>
0

>  <SCORE.SYSTEM.SOLV>
0

>  <SCORE.SYSTEM.norm>
0

>  <SCORE.heavy>
22

>  <SCORE.norm>
-0.807789

>  <RMSD>
11.967

$$$$
2fcx_lig
 OpenBabel11021811433D
libRbt.so/2013.1/901 2013/11/27
 22 23  0  0  0  0  0  0  0  0999 V2000
   27.5025   -3.0496   11.0579 N   0  0  0  0  0  0  0  0  0  0  0  0
   26.0376    1.1196    8.9255 N   0  0  0  0  0  0  0  0  0  0  0  0
   27.9524    1.6677    4.5345 N   0  0  0  0  0  0  0  0  0  0  0  0
   30.7313    0.4626   10.0292 O   0  0  0  0  0  0  0  0  0  0  0  0
   29.3935    0.2075   10.4661 C   0  0  2  0  0  0  0  0  0  0  0  0
   29.4087    4.9973    9.9883 N   0  0  0  0  0  0  0  0  0  0  0  0
   30.0500   -1.8044   11.5971 O   0  0  0  0  0  0  0  0  0  0  0  0
   29.1634   -1.3004   10.5912 C   0  0  1  0  0  0  0  0  0  0  0  0
   28.5337    2.2974    9.5581 O   0  0  0  0  0  0  0  0  0  0  0  0
   27.7158   -1.5965   10.9900 C   0  0  1  0  0  0  0  0  0  0  0  0
   29.9094    2.1191    7.6693 O   0  0  0  0  0  0  0  0  0  0  0  0
   26.7425   -0.9927    9.9719 C   0  0  0  0  0  0  0  0  0  0  0  0
   27.6286    4.1265    5.5599 O   0  0  0  0  0  0  0  0  0  0  0  0
   26.9609    0.5212    9.9001 C   0  0  1  0  0  0  0  0  0  0  0  0
   28.4403    6.0325    7.4934 O   0  0  0  0  0  0  0  0  0  0  0  0
   28.3990    0.8674    9.5031 C   0  0  2  0  0  0  0  0  0  0  0  0
   29.7331    2.7857    8.9329 C   0  0  1  0  0  0  0  0  0  0  0  0
   28.8578    2.3772    6.7173 C   0  0  2  0  0  0  0  0  0  0  0  0
   29.1443    1.6608    5.3958 C   0  0  0  0  0  0  0  0  0  0  0  0
   28.7326    3.8769    6.4354 C   0  0  2  0  0  0  0  0  0  0  0  0
   28.4946    4.6274    7.7468 C   0  0  1  0  0  0  0  0  0  0  0  0
   29.6347    4.3005    8.7149 C   0  0  1  0  0  0  0  0  0  0  0  0
  5  4  1  6  0  0  0
  5  8  1  0  0  0  0
  5 16  1  0  0  0  0
  8  7  1  1  0  0  0
  8 10  1  0  0  0  0
 10  1  1  6  0  0  0
 10 12  1  0  0  0  0
 11 18  1  0  0  0  0
 12 14  1  0  0  0  0
 14  2  1  6  0  0  0
 14 16  1  0  0  0  0
 16  9  1  1  0  0  0
 17  9  1  6  0  0  0
 17 11  1  0  0  0  0
 17 22  1  0  0  0  0
 18 19  1  6  0  0  0
 18 20  1  0  0  0  0
 19  3  1  0  0  0  0
 20 13  1  6  0  0  0
 20 21  1  0  0  0  0
 21 15  1  6  0  0  0
 21 22  1  0  0  0  0
 22  6  1  1  0  0  0
M  END
>  <CHROM.1>
72.50202295,44.95518237,167.35693139,28.61868186,1.62573582,8.70553868,1.63149273
1.06856827,2.46545314

>  <Name>
2fcx_lig

>  <RI>
224

>  <Rbt.Current_Directory>
/home/itssahil/PROJECTS/Mol_Feturizer/New_Systems/rnas/2fcx

>  <Rbt.Executable>
rbdock ($Id: //depot/dev/client3/rdock/2013.1/src/exe/rbdock.cxx#4 $)

>  <Rbt.Library>
libRbt.so (2013.1, Build901 2013/11/27)

>  <Rbt.Parameter_File>
/export/apps/rDock/src/rDock_2013.1_src/data/scripts/dock_solv.prm

>  <Rbt.Receptor>
prm/blind_docking_60.prm

>  <SCORE>
-17.7401

>  <SCORE.INTER>
-17.5084

>  <SCORE.INTER.CONST>
1

>  <SCORE.INTER.POLAR>
-2.4751

>  <SCORE.INTER.ROT>
3

>  <SCORE.INTER.SOLV>
13.4604

>  <SCORE.INTER.VDW>
-13.5087

>  <SCORE.INTER.norm>
-0.795834

>  <SCORE.INTRA>
-0.237982

>  <SCORE.INTRA.DIHEDRAL>
-2.51079

>  <SCORE.INTRA.DIHEDRAL.0>
4.88619

>  <SCORE.INTRA.POLAR>
0

>  <SCORE.INTRA.POLAR.0>
0

>  <SCORE.INTRA.REPUL>
0

>  <SCORE.INTRA.REPUL.0>
0

>  <SCORE.INTRA.SOLV>
0.401737

>  <SCORE.INTRA.SOLV.lig_0>
-73.8187

>  <SCORE.INTRA.VDW>
0.816546

>  <SCORE.INTRA.VDW.0>
-1.32335

>  <SCORE.INTRA.norm>
-0.0108174

>  <SCORE.RESTR>
0.00619384

>  <SCORE.RESTR.CAVITY>
0.00619384

>  <SCORE.RESTR.norm>
0.000281538

>  <SCORE.SYSTEM>
0

>  <SCORE.SYSTEM.CONST>
0

>  <SCORE.SYSTEM.DIHEDRAL>
0

>  <SCORE.SYSTEM.SOLV>
0

>  <SCORE.SYSTEM.norm>
0

>  <SCORE.heavy>
22

>  <SCORE.norm>
-0.80637

>  <RMSD>
11.975

$$$$
2fcx_lig
 OpenBabel11021811433D
libRbt.so/2013.1/901 2013/11/27
 22 23  0  0  0  0  0  0  0  0999 V2000
   27.2464   -2.9787   11.2317 N   0  0  0  0  0  0  0  0  0  0  0  0
   26.0712    1.1964    8.9377 N   0  0  0  0  0  0  0  0  0  0  0  0
   29.7870   -0.2206    6.0615 N   0  0  0  0  0  0  0  0  0  0  0  0
   30.6794    0.3489   10.2515 O   0  0  0  0  0  0  0  0  0  0  0  0
   29.3144    0.1688   10.6386 C   0  0  2  0  0  0  0  0  0  0  0  0
   29.4625    4.9994    9.8589 N   0  0  0  0  0  0  0  0  0  0  0  0
   29.8271   -1.8409   11.8454 O   0  0  0  0  0  0  0  0  0  0  0  0
   29.0071   -1.3227   10.7913 C   0  0  1  0  0  0  0  0  0  0  0  0
   28.5936    2.2718    9.6441 O   0  0  0  0  0  0  0  0  0  0  0  0
   27.5320   -1.5395   11.1367 C   0  0  1  0  0  0  0  0  0  0  0  0
   30.1399    1.8812    7.9272 O   0  0  0  0  0  0  0  0  0  0  0  0
   26.6308   -0.9180   10.0644 C   0  0  0  0  0  0  0  0  0  0  0  0
   28.0992    3.6529    5.4017 O   0  0  0  0  0  0  0  0  0  0  0  0
   26.9245    0.5815    9.9643 C   0  0  1  0  0  0  0  0  0  0  0  0
   28.7508    5.7572    7.1843 O   0  0  0  0  0  0  0  0  0  0  0  0
   28.3925    0.8488    9.6190 C   0  0  2  0  0  0  0  0  0  0  0  0
   29.8539    2.6837    9.0876 C   0  0  1  0  0  0  0  0  0  0  0  0
   29.1874    2.0370    6.8561 C   0  0  2  0  0  0  0  0  0  0  0  0
   29.5879    1.1783    5.6544 C   0  0  0  0  0  0  0  0  0  0  0  0
   29.1112    3.4970    6.4013 C   0  0  2  0  0  0  0  0  0  0  0  0
   28.7605    4.3883    7.5938 C   0  0  1  0  0  0  0  0  0  0  0  0
   29.7985    4.1656    8.6969 C   0  0  1  0  0  0  0  0  0  0  0  0
  5  4  1  6  0  0  0
  5  8  1  0  0  0  0
  5 16  1  0  0  0  0
  8  7  1  1  0  0  0
  8 10  1  0  0  0  0
 10  1  1  6  0  0  0
 10 12  1  0  0  0  0
 11 18  1  0  0  0  0
 12 14  1  0  0  0  0
 14  2  1  6  0  0  0
 14 16  1  0  0  0  0
 16  9  1  1  0  0  0
 17  9  1  6  0  0  0
 17 11  1  0  0  0  0
 17 22  1  0  0  0  0
 18 19  1  6  0  0  0
 18 20  1  0  0  0  0
 19  3  1  0  0  0  0
 20 13  1  6  0  0  0
 20 21  1  0  0  0  0
 21 15  1  6  0  0  0
 21 22  1  0  0  0  0
 22  6  1  1  0  0  0
M  END
>  <CHROM.1>
71.04640446,39.50762860,53.55141484,28.78340009,1.42024970,8.84386925,2.32732195
1.39223077,1.77393154

>  <Name>
2fcx_lig

>  <RI>
2.63278e+07

>  <Rbt.Current_Directory>
/home/itssahil/PROJECTS/Mol_Feturizer/New_Systems/rnas/2fcx

>  <Rbt.Executable>
rbdock ($Id: //depot/dev/client3/rdock/2013.1/src/exe/rbdock.cxx#4 $)

>  <Rbt.Library>
libRbt.so (2013.1, Build901 2013/11/27)

>  <Rbt.Parameter_File>
/export/apps/rDock/src/rDock_2013.1_src/data/scripts/dock_solv.prm

>  <Rbt.Receptor>
prm/blind_docking_40.prm

>  <SCORE>
-18.1782

>  <SCORE.INTER>
-17.8245

>  <SCORE.INTER.CONST>
1

>  <SCORE.INTER.POLAR>
-2.35058

>  <SCORE.INTER.ROT>
3

>  <SCORE.INTER.SOLV>
14.0704

>  <SCORE.INTER.VDW>
-14.3379

>  <SCORE.INTER.norm>
-0.810204

>  <SCORE.INTRA>
-0.362965

>  <SCORE.INTRA.DIHEDRAL>
-2.25962

>  <SCORE.INTRA.DIHEDRAL.0>
4.88619

>  <SCORE.INTRA.POLAR>
0

>  <SCORE.INTRA.POLAR.0>
0

>  <SCORE.INTRA.REPUL>
0

>  <SCORE.INTRA.REPUL.0>
0

>  <SCORE.INTRA.SOLV>
-0.159762

>  <SCORE.INTRA.SOLV.lig_0>
-73.8187

>  <SCORE.INTRA.VDW>
0.846725

>  <SCORE.INTRA.VDW.0>
-1.32335

>  <SCORE.INTRA.norm>
-0.0164984

>  <SCORE.RESTR>
0.0092921

>  <SCORE.RESTR.CAVITY>
0.0092921

>  <SCORE.RESTR.norm>
0.000422368

>  <SCORE.SYSTEM>
0

>  <SCORE.SYSTEM.CONST>
0

>  <SCORE.SYSTEM.DIHEDRAL>
0

>  <SCORE.SYSTEM.SOLV>
0

>  <SCORE.SYSTEM.norm>
0

>  <SCORE.heavy>
22

>  <SCORE.norm>
-0.82628

>  <RMSD>
11.986

$$$$
2fcx_lig
 OpenBabel11021811433D
libRbt.so/2013.1/901 2013/11/27
 22 23  0  0  0  0  0  0  0  0999 V2000
   26.9204    3.6940    1.8141 N   0  0  0  0  0  0  0  0  0  0  0  0
   28.6236    0.5028    5.1293 N   0  0  0  0  0  0  0  0  0  0  0  0
   26.3867   -2.9625    8.2869 N   0  0  0  0  0  0  0  0  0  0  0  0
   25.1657    3.6947    6.3682 O   0  0  0  0  0  0  0  0  0  0  0  0
   26.3445    3.5146    5.5786 C   0  0  2  0  0  0  0  0  0  0  0  0
   27.6211    3.2348    9.7626 N   0  0  0  0  0  0  0  0  0  0  0  0
   25.6113    5.1214    3.9542 O   0  0  0  0  0  0  0  0  0  0  0  0
   26.0261    3.7583    4.1015 C   0  0  1  0  0  0  0  0  0  0  0  0
   27.3749    1.9996    7.1830 O   0  0  0  0  0  0  0  0  0  0  0  0
   27.2590    3.5016    3.2319 C   0  0  1  0  0  0  0  0  0  0  0  0
   25.6023    0.6737    7.9521 O   0  0  0  0  0  0  0  0  0  0  0  0
   27.7742    2.0729    3.4361 C   0  0  0  0  0  0  0  0  0  0  0  0
   27.8415   -1.6116    9.8082 O   0  0  0  0  0  0  0  0  0  0  0  0
   28.1296    1.8698    4.9116 C   0  0  1  0  0  0  0  0  0  0  0  0
   28.2410    0.8270   11.1953 O   0  0  0  0  0  0  0  0  0  0  0  0
   26.9237    2.1159    5.8233 C   0  0  2  0  0  0  0  0  0  0  0  0
   26.3035    1.9170    8.1386 C   0  0  1  0  0  0  0  0  0  0  0  0
   26.4093   -0.4972    8.1904 C   0  0  2  0  0  0  0  0  0  0  0  0
   25.5769   -1.7678    8.0052 C   0  0  0  0  0  0  0  0  0  0  0  0
   26.9713   -0.4923    9.6146 C   0  0  2  0  0  0  0  0  0  0  0  0
   27.7690    0.7919    9.8471 C   0  0  1  0  0  0  0  0  0  0  0  0
   26.8621    1.9927    9.5648 C   0  0  1  0  0  0  0  0  0  0  0  0
  5  4  1  1  0  0  0
  5  8  1  0  0  0  0
  5 16  1  0  0  0  0
  8  7  1  1  0  0  0
  8 10  1  0  0  0  0
 10  1  1  6  0  0  0
 10 12  1  0  0  0  0
 11 18  1  0  0  0  0
 12 14  1  0  0  0  0
 14  2  1  6  0  0  0
 14 16  1  0  0  0  0
 16  9  1  1  0  0  0
 17  9  1  6  0  0  0
 17 11  1  0  0  0  0
 17 22  1  0  0  0  0
 18 19  1  1  0  0  0
 18 20  1  0  0  0  0
 19  3  1  0  0  0  0
 20 13  1  6  0  0  0
 20 21  1  0  0  0  0
 21 15  1  1  0  0  0
 21 22  1  0  0  0  0
 22  6  1  6  0  0  0
M  END
>  <CHROM.1>
72.42039155,67.18820461,-178.30639276,26.88712351,1.54266901,6.93676031,-2.34720686
-1.48026951,1.40248064

>  <Name>
2fcx_lig

>  <RI>
2.63278e+07

>  <Rbt.Current_Directory>
/home/itssahil/PROJECTS/Mol_Feturizer/New_Systems/rnas/2fcx

>  <Rbt.Executable>
rbdock ($Id: //depot/dev/client3/rdock/2013.1/src/exe/rbdock.cxx#4 $)

>  <Rbt.Library>
libRbt.so (2013.1, Build901 2013/11/27)

>  <Rbt.Parameter_File>
/export/apps/rDock/src/rDock_2013.1_src/data/scripts/dock_solv.prm

>  <Rbt.Receptor>
prm/blind_docking_40.prm

>  <SCORE>
-11.5625

>  <SCORE.INTER>
-11.0288

>  <SCORE.INTER.CONST>
1

>  <SCORE.INTER.POLAR>
-1.46228

>  <SCORE.INTER.ROT>
3

>  <SCORE.INTER.SOLV>
13.8155

>  <SCORE.INTER.VDW>
-12.6834

>  <SCORE.INTER.norm>
-0.501307

>  <SCORE.INTRA>
-0.533733

>  <SCORE.INTRA.DIHEDRAL>
-3.8814

>  <SCORE.INTRA.DIHEDRAL.0>
4.88619

>  <SCORE.INTRA.POLAR>
0

>  <SCORE.INTRA.POLAR.0>
0

>  <SCORE.INTRA.REPUL>
0

>  <SCORE.INTRA.REPUL.0>
0

>  <SCORE.INTRA.SOLV>
0.695217

>  <SCORE.INTRA.SOLV.lig_0>
-73.8187

>  <SCORE.INTRA.VDW>
1.05936

>  <SCORE.INTRA.VDW.0>
-1.32335

>  <SCORE.INTRA.norm>
-0.0242606

>  <SCORE.RESTR>
0

>  <SCORE.RESTR.CAVITY>
0

>  <SCORE.RESTR.norm>
0

>  <SCORE.SYSTEM>
0

>  <SCORE.SYSTEM.CONST>
0

>  <SCORE.SYSTEM.DIHEDRAL>
0

>  <SCORE.SYSTEM.SOLV>
0

>  <SCORE.SYSTEM.norm>
0

>  <SCORE.heavy>
22

>  <SCORE.norm>
-0.525568

>  <RMSD>
12.001

$$$$
2fcx_lig
 OpenBabel11021811433D
libRbt.so/2013.1/901 2013/11/27
 22 23  0  0  0  0  0  0  0  0999 V2000
   29.3804   -2.2148   12.6569 N   0  0  0  0  0  0  0  0  0  0  0  0
   30.8263    1.0094    9.2527 N   0  0  0  0  0  0  0  0  0  0  0  0
   28.5014    4.6200   10.4646 N   0  0  0  0  0  0  0  0  0  0  0  0
   26.1132   -0.1155    9.7010 O   0  0  0  0  0  0  0  0  0  0  0  0
   27.4405   -0.6428    9.7757 C   0  0  2  0  0  0  0  0  0  0  0  0
   26.9513    0.7522    5.4773 N   0  0  0  0  0  0  0  0  0  0  0  0
   26.7897   -2.2975   11.3871 O   0  0  0  0  0  0  0  0  0  0  0  0
   27.6988   -1.2114   11.1730 C   0  0  1  0  0  0  0  0  0  0  0  0
   28.2852    0.8164    8.0184 O   0  0  0  0  0  0  0  0  0  0  0  0
   29.1381   -1.7173   11.2947 C   0  0  1  0  0  0  0  0  0  0  0  0
   27.2364    2.8426    8.5534 O   0  0  0  0  0  0  0  0  0  0  0  0
   30.1322   -0.5926   10.9862 C   0  0  0  0  0  0  0  0  0  0  0  0
   29.4562    4.8150    6.3480 O   0  0  0  0  0  0  0  0  0  0  0  0
   29.8837   -0.0734    9.5673 C   0  0  1  0  0  0  0  0  0  0  0  0
   28.0930    3.1856    4.4726 O   0  0  0  0  0  0  0  0  0  0  0  0
   28.4527    0.4452    9.3969 C   0  0  2  0  0  0  0  0  0  0  0  0
   27.1260    1.6333    7.7802 C   0  0  1  0  0  0  0  0  0  0  0  0
   28.3601    3.6704    8.1917 C   0  0  2  0  0  0  0  0  0  0  0  0
   28.3787    4.9465    9.0360 C   0  0  0  0  0  0  0  0  0  0  0  0
   28.2909    4.0702    6.7153 C   0  0  2  0  0  0  0  0  0  0  0  0
   28.2210    2.8135    5.8461 C   0  0  1  0  0  0  0  0  0  0  0  0
   27.0192    1.9748    6.2890 C   0  0  1  0  0  0  0  0  0  0  0  0
  5  4  1  1  0  0  0
  5  8  1  0  0  0  0
  5 16  1  0  0  0  0
  8  7  1  6  0  0  0
  8 10  1  0  0  0  0
 10  1  1  1  0  0  0
 10 12  1  0  0  0  0
 11 18  1  0  0  0  0
 12 14  1  0  0  0  0
 14  2  1  1  0  0  0
 14 16  1  0  0  0  0
 16  9  1  6  0  0  0
 17  9  1  6  0  0  0
 17 11  1  0  0  0  0
 17 22  1  0  0  0  0
 18 19  1  1  0  0  0
 18 20  1  0  0  0  0
 19  3  1  0  0  0  0
 20 13  1  6  0  0  0
 20 21  1  0  0  0  0
 21 15  1  6  0  0  0
 21 22  1  0  0  0  0
 22  6  1  6  0  0  0
M  END
>  <CHROM.1>
74.83938538,59.67754386,60.69434007,28.24266302,1.32174770,8.72379327,-1.50781129
-0.99283305,-0.69604332

>  <Name>
2fcx_lig

>  <RI>
2.51704e+07

>  <Rbt.Current_Directory>
/home/itssahil/PROJECTS/Mol_Feturizer/New_Systems/rnas/2fcx

>  <Rbt.Executable>
rbdock ($Id: //depot/dev/client3/rdock/2013.1/src/exe/rbdock.cxx#4 $)

>  <Rbt.Library>
libRbt.so (2013.1, Build901 2013/11/27)

>  <Rbt.Parameter_File>
/export/apps/rDock/src/rDock_2013.1_src/data/scripts/dock_solv.prm

>  <Rbt.Receptor>
prm/blind_docking_80.prm

>  <SCORE>
-8.51993

>  <SCORE.INTER>
-6.39026

>  <SCORE.INTER.CONST>
1

>  <SCORE.INTER.POLAR>
-1.46442

>  <SCORE.INTER.ROT>
3

>  <SCORE.INTER.SOLV>
15.4312

>  <SCORE.INTER.VDW>
-10.1225

>  <SCORE.INTER.norm>
-0.290466

>  <SCORE.INTRA>
-2.13286

>  <SCORE.INTRA.DIHEDRAL>
-3.8426

>  <SCORE.INTRA.DIHEDRAL.0>
4.88619

>  <SCORE.INTRA.POLAR>
0

>  <SCORE.INTRA.POLAR.0>
0

>  <SCORE.INTRA.REPUL>
0

>  <SCORE.INTRA.REPUL.0>
0

>  <SCORE.INTRA.SOLV>
-0.55369

>  <SCORE.INTRA.SOLV.lig_0>
-73.8187

>  <SCORE.INTRA.VDW>
0.0652897

>  <SCORE.INTRA.VDW.0>
-1.32335

>  <SCORE.INTRA.norm>
-0.096948

>  <SCORE.RESTR>
0.00318656

>  <SCORE.RESTR.CAVITY>
0.00318656

>  <SCORE.RESTR.norm>
0.000144844

>  <SCORE.SYSTEM>
0

>  <SCORE.SYSTEM.CONST>
0

>  <SCORE.SYSTEM.DIHEDRAL>
0

>  <SCORE.SYSTEM.SOLV>
0

>  <SCORE.SYSTEM.norm>
0

>  <SCORE.heavy>
22

>  <SCORE.norm>
-0.38727

>  <RMSD>
12.002

$$$$
2fcx_lig
 OpenBabel11021811433D
libRbt.so/2013.1/901 2013/11/27
 22 23  0  0  0  0  0  0  0  0999 V2000
   27.2866    3.2386    4.8112 N   0  0  0  0  0  0  0  0  0  0  0  0
   28.9203    3.0281    9.4330 N   0  0  0  0  0  0  0  0  0  0  0  0
   31.8804   -3.4354    7.5629 N   0  0  0  0  0  0  0  0  0  0  0  0
   30.7140    0.0009    6.0716 O   0  0  0  0  0  0  0  0  0  0  0  0
   29.5281    0.6670    6.5135 C   0  0  2  0  0  0  0  0  0  0  0  0
   28.1891    0.7034   10.9583 N   0  0  0  0  0  0  0  0  0  0  0  0
   28.6303    0.7379    4.2893 O   0  0  0  0  0  0  0  0  0  0  0  0
   28.9894    1.5683    5.4000 C   0  0  1  0  0  0  0  0  0  0  0  0
   30.1472    0.5400    8.8655 O   0  0  0  0  0  0  0  0  0  0  0  0
   27.7597    2.3440    5.8777 C   0  0  1  0  0  0  0  0  0  0  0  0
   29.7616   -1.7606    8.6412 O   0  0  0  0  0  0  0  0  0  0  0  0
   28.0970    3.1766    7.1192 C   0  0  0  0  0  0  0  0  0  0  0  0
   31.6730   -2.5912   11.6970 O   0  0  0  0  0  0  0  0  0  0  0  0
   28.5883    2.2475    8.2328 C   0  0  1  0  0  0  0  0  0  0  0  0
   29.5224   -1.0851   12.7632 O   0  0  0  0  0  0  0  0  0  0  0  0
   29.8212    1.4483    7.8002 C   0  0  2  0  0  0  0  0  0  0  0  0
   29.1784   -0.5076    9.0438 C   0  0  1  0  0  0  0  0  0  0  0  0
   30.8980   -2.1610    9.4332 C   0  0  2  0  0  0  0  0  0  0  0  0
   31.4295   -3.5158    8.9603 C   0  0  0  0  0  0  0  0  0  0  0  0
   30.5177   -2.2817   10.9115 C   0  0  2  0  0  0  0  0  0  0  0  0
   29.9357   -0.9548   11.4016 C   0  0  1  0  0  0  0  0  0  0  0  0
   28.7460   -0.5811   10.5133 C   0  0  1  0  0  0  0  0  0  0  0  0
  5  4  1  6  0  0  0
  5  8  1  0  0  0  0
  5 16  1  0  0  0  0
  8  7  1  6  0  0  0
  8 10  1  0  0  0  0
 10  1  1  6  0  0  0
 10 12  1  0  0  0  0
 11 18  1  0  0  0  0
 12 14  1  0  0  0  0
 14  2  1  1  0  0  0
 14 16  1  0  0  0  0
 16  9  1  1  0  0  0
 17  9  1  1  0  0  0
 17 11  1  0  0  0  0
 17 22  1  0  0  0  0
 18 19  1  6  0  0  0
 18 20  1  0  0  0  0
 19  3  1  0  0  0  0
 20 13  1  1  0  0  0
 20 21  1  0  0  0  0
 21 15  1  1  0  0  0
 21 22  1  0  0  0  0
 22  6  1  1  0  0  0
M  END
>  <CHROM.1>
-51.76031379,110.55273880,61.48577686,29.58029363,0.00487624,8.47647620,2.24157421
1.02699624,-1.44696232

>  <Name>
2fcx_lig

>  <RI>
2.51704e+07

>  <Rbt.Current_Directory>
/home/itssahil/PROJECTS/Mol_Feturizer/New_Systems/rnas/2fcx

>  <Rbt.Executable>
rbdock ($Id: //depot/dev/client3/rdock/2013.1/src/exe/rbdock.cxx#4 $)

>  <Rbt.Library>
libRbt.so (2013.1, Build901 2013/11/27)

>  <Rbt.Parameter_File>
/export/apps/rDock/src/rDock_2013.1_src/data/scripts/dock_solv.prm

>  <Rbt.Receptor>
prm/blind_docking_80.prm

>  <SCORE>
-7.89371

>  <SCORE.INTER>
-10.9981

>  <SCORE.INTER.CONST>
1

>  <SCORE.INTER.POLAR>
-2.16815

>  <SCORE.INTER.ROT>
3

>  <SCORE.INTER.SOLV>
10.1933

>  <SCORE.INTER.VDW>
-9.10264

>  <SCORE.INTER.norm>
-0.499912

>  <SCORE.INTRA>
3.10435

>  <SCORE.INTRA.DIHEDRAL>
2.22528

>  <SCORE.INTRA.DIHEDRAL.0>
4.88619

>  <SCORE.INTRA.POLAR>
0

>  <SCORE.INTRA.POLAR.0>
0

>  <SCORE.INTRA.REPUL>
0

>  <SCORE.INTRA.REPUL.0>
0

>  <SCORE.INTRA.SOLV>
2.68873

>  <SCORE.INTRA.SOLV.lig_0>
-73.8187

>  <SCORE.INTRA.VDW>
0.647349

>  <SCORE.INTRA.VDW.0>
-1.32335

>  <SCORE.INTRA.norm>
0.141107

>  <SCORE.RESTR>
0

>  <SCORE.RESTR.CAVITY>
0

>  <SCORE.RESTR.norm>
0

>  <SCORE.SYSTEM>
0

>  <SCORE.SYSTEM.CONST>
0

>  <SCORE.SYSTEM.DIHEDRAL>
0

>  <SCORE.SYSTEM.SOLV>
0

>  <SCORE.SYSTEM.norm>
0

>  <SCORE.heavy>
22

>  <SCORE.norm>
-0.358805

>  <RMSD>
12.041

$$$$
2fcx_lig
 OpenBabel11021811433D
libRbt.so/2013.1/901 2013/11/27
 22 23  0  0  0  0  0  0  0  0999 V2000
   27.4095   -3.0428   11.5888 N   0  0  0  0  0  0  0  0  0  0  0  0
   26.1340    0.9171    8.9875 N   0  0  0  0  0  0  0  0  0  0  0  0
   29.7395   -0.4139    6.0582 N   0  0  0  0  0  0  0  0  0  0  0  0
   30.7506    0.3106   10.4012 O   0  0  0  0  0  0  0  0  0  0  0  0
   29.3874    0.1165   10.7879 C   0  0  2  0  0  0  0  0  0  0  0  0
   29.4772    4.8482    9.8513 N   0  0  0  0  0  0  0  0  0  0  0  0
   29.9473   -1.7839   12.1419 O   0  0  0  0  0  0  0  0  0  0  0  0
   29.1239   -1.3689   11.0455 C   0  0  1  0  0  0  0  0  0  0  0  0
   28.6143    2.1188    9.6370 O   0  0  0  0  0  0  0  0  0  0  0  0
   27.6523   -1.6061   11.3923 C   0  0  1  0  0  0  0  0  0  0  0  0
   30.1905    1.7198    7.9493 O   0  0  0  0  0  0  0  0  0  0  0  0
   26.7448   -1.0920   10.2697 C   0  0  0  0  0  0  0  0  0  0  0  0
   28.1923    3.4753    5.3789 O   0  0  0  0  0  0  0  0  0  0  0  0
   26.9939    0.4048   10.0637 C   0  0  1  0  0  0  0  0  0  0  0  0
   28.8113    5.5902    7.1605 O   0  0  0  0  0  0  0  0  0  0  0  0
   28.4569    0.6921    9.7133 C   0  0  2  0  0  0  0  0  0  0  0  0
   29.8838    2.5286    9.1000 C   0  0  1  0  0  0  0  0  0  0  0  0
   29.2565    1.8687    6.8610 C   0  0  2  0  0  0  0  0  0  0  0  0
   29.6784    1.0035    5.6713 C   0  0  0  0  0  0  0  0  0  0  0  0
   29.1870    3.3260    6.3967 C   0  0  2  0  0  0  0  0  0  0  0  0
   28.8150    4.2237    7.5779 C   0  0  1  0  0  0  0  0  0  0  0  0
   29.8340    4.0082    8.7000 C   0  0  1  0  0  0  0  0  0  0  0  0
  5  4  1  6  0  0  0
  5  8  1  0  0  0  0
  5 16  1  0  0  0  0
  8  7  1  1  0  0  0
  8 10  1  0  0  0  0
 10  1  1  6  0  0  0
 10 12  1  0  0  0  0
 11 18  1  0  0  0  0
 12 14  1  0  0  0  0
 14  2  1  6  0  0  0
 14 16  1  0  0  0  0
 16  9  1  1  0  0  0
 17  9  1  6  0  0  0
 17 11  1  0  0  0  0
 17 22  1  0  0  0  0
 18 19  1  6  0  0  0
 18 20  1  0  0  0  0
 19  3  1  0  0  0  0
 20 13  1  6  0  0  0
 20 21  1  0  0  0  0
 21 15  1  6  0  0  0
 21 22  1  0  0  0  0
 22  6  1  1  0  0  0
M  END
>  <CHROM.1>
69.31633424,44.10116229,59.27462421,28.85256170,1.28524234,8.92894506,2.17473726
1.36734884,1.87574917

>  <Name>
2fcx_lig

>  <RI>
2.51704e+07

>  <Rbt.Current_Directory>
/home/itssahil/PROJECTS/Mol_Feturizer/New_Systems/rnas/2fcx

>  <Rbt.Executable>
rbdock ($Id: //depot/dev/client3/rdock/2013.1/src/exe/rbdock.cxx#4 $)

>  <Rbt.Library>
libRbt.so (2013.1, Build901 2013/11/27)

>  <Rbt.Parameter_File>
/export/apps/rDock/src/rDock_2013.1_src/data/scripts/dock_solv.prm

>  <Rbt.Receptor>
prm/blind_docking_80.prm

>  <SCORE>
-18.8028

>  <SCORE.INTER>
-18.235

>  <SCORE.INTER.CONST>
1

>  <SCORE.INTER.POLAR>
-2.40719

>  <SCORE.INTER.ROT>
3

>  <SCORE.INTER.SOLV>
14.1242

>  <SCORE.INTER.VDW>
-14.4407

>  <SCORE.INTER.norm>
-0.828864

>  <SCORE.INTRA>
-1.03792

>  <SCORE.INTRA.DIHEDRAL>
-3.27879

>  <SCORE.INTRA.DIHEDRAL.0>
4.88619

>  <SCORE.INTRA.POLAR>
0

>  <SCORE.INTRA.POLAR.0>
0

>  <SCORE.INTRA.REPUL>
0

>  <SCORE.INTRA.REPUL.0>
0

>  <SCORE.INTRA.SOLV>
-0.400337

>  <SCORE.INTRA.SOLV.lig_0>
-73.8187

>  <SCORE.INTRA.VDW>
0.801646

>  <SCORE.INTRA.VDW.0>
-1.32335

>  <SCORE.INTRA.norm>
-0.047178

>  <SCORE.RESTR>
0.470114

>  <SCORE.RESTR.CAVITY>
0.470114

>  <SCORE.RESTR.norm>
0.0213688

>  <SCORE.SYSTEM>
0

>  <SCORE.SYSTEM.CONST>
0

>  <SCORE.SYSTEM.DIHEDRAL>
0

>  <SCORE.SYSTEM.SOLV>
0

>  <SCORE.SYSTEM.norm>
0

>  <SCORE.heavy>
22

>  <SCORE.norm>
-0.854673

>  <RMSD>
12.052

$$$$
2fcx_lig
 OpenBabel11021811433D
libRbt.so/2013.1/901 2013/11/27
 22 23  0  0  0  0  0  0  0  0999 V2000
   27.4441   -3.0568   11.5127 N   0  0  0  0  0  0  0  0  0  0  0  0
   26.1736    0.9630    9.0024 N   0  0  0  0  0  0  0  0  0  0  0  0
   29.7895   -0.4030    6.0697 N   0  0  0  0  0  0  0  0  0  0  0  0
   30.7999    0.2919   10.3538 O   0  0  0  0  0  0  0  0  0  0  0  0
   29.4394    0.1014   10.7515 C   0  0  2  0  0  0  0  0  0  0  0  0
   29.5329    4.8625    9.8477 N   0  0  0  0  0  0  0  0  0  0  0  0
   29.9980   -1.8294   12.0623 O   0  0  0  0  0  0  0  0  0  0  0  0
   29.1664   -1.3866   10.9832 C   0  0  1  0  0  0  0  0  0  0  0  0
   28.6706    2.1317    9.6480 O   0  0  0  0  0  0  0  0  0  0  0  0
   27.6966   -1.6186   11.3414 C   0  0  1  0  0  0  0  0  0  0  0  0
   30.2290    1.7311    7.9443 O   0  0  0  0  0  0  0  0  0  0  0  0
   26.7814   -1.0755   10.2388 C   0  0  0  0  0  0  0  0  0  0  0  0
   28.2017    3.4796    5.3920 O   0  0  0  0  0  0  0  0  0  0  0  0
   27.0407    0.4229   10.0591 C   0  0  1  0  0  0  0  0  0  0  0  0
   28.8375    5.5986    7.1628 O   0  0  0  0  0  0  0  0  0  0  0  0
   28.5022    0.7052    9.6984 C   0  0  2  0  0  0  0  0  0  0  0  0
   29.9338    2.5418    9.0967 C   0  0  1  0  0  0  0  0  0  0  0  0
   29.2833    1.8769    6.8658 C   0  0  2  0  0  0  0  0  0  0  0  0
   29.6934    1.0099    5.6733 C   0  0  0  0  0  0  0  0  0  0  0  0
   29.2074    3.3333    6.3994 C   0  0  2  0  0  0  0  0  0  0  0  0
   28.8470    4.2329    7.5828 C   0  0  1  0  0  0  0  0  0  0  0  0
   29.8782    4.0206    8.6943 C   0  0  1  0  0  0  0  0  0  0  0  0
  5  4  1  6  0  0  0
  5  8  1  0  0  0  0
  5 16  1  0  0  0  0
  8  7  1  1  0  0  0
  8 10  1  0  0  0  0
 10  1  1  6  0  0  0
 10 12  1  0  0  0  0
 11 18  1  0  0  0  0
 12 14  1  0  0  0  0
 14  2  1  6  0  0  0
 14 16  1  0  0  0  0
 16  9  1  1  0  0  0
 17  9  1  6  0  0  0
 17 11  1  0  0  0  0
 17 22  1  0  0  0  0
 18 19  1  6  0  0  0
 18 20  1  0  0  0  0
 19  3  1  0  0  0  0
 20 13  1  6  0  0  0
 20 21  1  0  0  0  0
 21 15  1  6  0  0  0
 21 22  1  0  0  0  0
 22  6  1  1  0  0  0
M  END
>  <CHROM.1>
69.72217659,42.66212584,58.00023933,28.89187101,1.28896443,8.91282515,2.18459384
1.37497437,1.87790506

>  <Name>
2fcx_lig

>  <RI>
2.51704e+07

>  <Rbt.Current_Directory>
/home/itssahil/PROJECTS/Mol_Feturizer/New_Systems/rnas/2fcx

>  <Rbt.Executable>
rbdock ($Id: //depot/dev/client3/rdock/2013.1/src/exe/rbdock.cxx#4 $)

>  <Rbt.Library>
libRbt.so (2013.1, Build901 2013/11/27)

>  <Rbt.Parameter_File>
/export/apps/rDock/src/rDock_2013.1_src/data/scripts/dock_solv.prm

>  <Rbt.Receptor>
prm/blind_docking_80.prm

>  <SCORE>
-18.7566

>  <SCORE.INTER>
-18.3718

>  <SCORE.INTER.CONST>
1

>  <SCORE.INTER.POLAR>
-2.46937

>  <SCORE.INTER.ROT>
3

>  <SCORE.INTER.SOLV>
13.9799

>  <SCORE.INTER.VDW>
-14.2766

>  <SCORE.INTER.norm>
-0.835084

>  <SCORE.INTRA>
-0.84439

>  <SCORE.INTRA.DIHEDRAL>
-3.02179

>  <SCORE.INTRA.DIHEDRAL.0>
4.88619

>  <SCORE.INTRA.POLAR>
0

>  <SCORE.INTRA.POLAR.0>
0

>  <SCORE.INTRA.REPUL>
0

>  <SCORE.INTRA.REPUL.0>
0

>  <SCORE.INTRA.SOLV>
-0.336223

>  <SCORE.INTRA.SOLV.lig_0>
-73.8187

>  <SCORE.INTRA.VDW>
0.834618

>  <SCORE.INTRA.VDW.0>
-1.32335

>  <SCORE.INTRA.norm>
-0.0383813

>  <SCORE.RESTR>
0.459615

>  <SCORE.RESTR.CAVITY>
0.459615

>  <SCORE.RESTR.norm>
0.0208916

>  <SCORE.SYSTEM>
0

>  <SCORE.SYSTEM.CONST>
0

>  <SCORE.SYSTEM.DIHEDRAL>
0

>  <SCORE.SYSTEM.SOLV>
0

>  <SCORE.SYSTEM.norm>
0

>  <SCORE.heavy>
22

>  <SCORE.norm>
-0.852574

>  <RMSD>
12.053

$$$$
2fcx_lig
 OpenBabel11021811433D
libRbt.so/2013.1/901 2013/11/27
 22 23  0  0  0  0  0  0  0  0999 V2000
   27.3996   -3.0349   11.6539 N   0  0  0  0  0  0  0  0  0  0  0  0
   26.1503    0.8986    9.0003 N   0  0  0  0  0  0  0  0  0  0  0  0
   29.8473   -0.4449    6.1135 N   0  0  0  0  0  0  0  0  0  0  0  0
   30.7569    0.2958   10.4480 O   0  0  0  0  0  0  0  0  0  0  0  0
   29.3909    0.1098   10.8288 C   0  0  2  0  0  0  0  0  0  0  0  0
   29.5058    4.8267    9.8593 N   0  0  0  0  0  0  0  0  0  0  0  0
   29.9376   -1.7765   12.2075 O   0  0  0  0  0  0  0  0  0  0  0  0
   29.1218   -1.3719   11.1017 C   0  0  1  0  0  0  0  0  0  0  0  0
   28.6300    2.1009    9.6507 O   0  0  0  0  0  0  0  0  0  0  0  0
   27.6475   -1.6012   11.4426 C   0  0  1  0  0  0  0  0  0  0  0  0
   30.2185    1.6853    7.9786 O   0  0  0  0  0  0  0  0  0  0  0  0
   26.7480   -1.0975   10.3088 C   0  0  0  0  0  0  0  0  0  0  0  0
   28.2522    3.4390    5.3826 O   0  0  0  0  0  0  0  0  0  0  0  0
   27.0024    0.3962   10.0873 C   0  0  1  0  0  0  0  0  0  0  0  0
   28.8672    5.5592    7.1593 O   0  0  0  0  0  0  0  0  0  0  0  0
   28.4683    0.6756    9.7423 C   0  0  2  0  0  0  0  0  0  0  0  0
   29.9063    2.5013    9.1227 C   0  0  1  0  0  0  0  0  0  0  0  0
   29.2948    1.8338    6.8816 C   0  0  2  0  0  0  0  0  0  0  0  0
   29.7224    0.9607    5.6998 C   0  0  0  0  0  0  0  0  0  0  0  0
   29.2372    3.2893    6.4097 C   0  0  2  0  0  0  0  0  0  0  0  0
   28.8598    4.1947    7.5833 C   0  0  1  0  0  0  0  0  0  0  0  0
   29.8679    3.9792    8.7152 C   0  0  1  0  0  0  0  0  0  0  0  0
  5  4  1  6  0  0  0
  5  8  1  0  0  0  0
  5 16  1  0  0  0  0
  8  7  1  1  0  0  0
  8 10  1  0  0  0  0
 10  1  1  6  0  0  0
 10 12  1  0  0  0  0
 11 18  1  0  0  0  0
 12 14  1  0  0  0  0
 14  2  1  6  0  0  0
 14 16  1  0  0  0  0
 16  9  1  1  0  0  0
 17  9  1  6  0  0  0
 17 11  1  0  0  0  0
 17 22  1  0  0  0  0
 18 19  1  6  0  0  0
 18 20  1  0  0  0  0
 19  3  1  0  0  0  0
 20 13  1  6  0  0  0
 20 21  1  0  0  0  0
 21 15  1  6  0  0  0
 21 22  1  0  0  0  0
 22  6  1  1  0  0  0
M  END
>  <CHROM.1>
69.02519084,44.56083453,56.02468349,28.87785737,1.26581983,8.95813400,2.26520696
1.37767957,1.77552087

>  <Name>
2fcx_lig

>  <RI>
2.51704e+07

>  <Rbt.Current_Directory>
/home/itssahil/PROJECTS/Mol_Feturizer/New_Systems/rnas/2fcx

>  <Rbt.Executable>
rbdock ($Id: //depot/dev/client3/rdock/2013.1/src/exe/rbdock.cxx#4 $)

>  <Rbt.Library>
libRbt.so (2013.1, Build901 2013/11/27)

>  <Rbt.Parameter_File>
/export/apps/rDock/src/rDock_2013.1_src/data/scripts/dock_solv.prm

>  <Rbt.Receptor>
prm/blind_docking_80.prm

>  <SCORE>
-18.7942

>  <SCORE.INTER>
-18.2364

>  <SCORE.INTER.CONST>
1

>  <SCORE.INTER.POLAR>
-2.40228

>  <SCORE.INTER.ROT>
3

>  <SCORE.INTER.SOLV>
14.3131

>  <SCORE.INTER.VDW>
-14.5211

>  <SCORE.INTER.norm>
-0.828928

>  <SCORE.INTRA>
-1.04081

>  <SCORE.INTRA.DIHEDRAL>
-3.31079

>  <SCORE.INTRA.DIHEDRAL.0>
4.88619

>  <SCORE.INTRA.POLAR>
0

>  <SCORE.INTRA.POLAR.0>
0

>  <SCORE.INTRA.REPUL>
0

>  <SCORE.INTRA.REPUL.0>
0

>  <SCORE.INTRA.SOLV>
-0.404698

>  <SCORE.INTRA.SOLV.lig_0>
-73.8187

>  <SCORE.INTRA.VDW>
0.816938

>  <SCORE.INTRA.VDW.0>
-1.32335

>  <SCORE.INTRA.norm>
-0.0473094

>  <SCORE.RESTR>
0.483012

>  <SCORE.RESTR.CAVITY>
0.483012

>  <SCORE.RESTR.norm>
0.0219551

>  <SCORE.SYSTEM>
0

>  <SCORE.SYSTEM.CONST>
0

>  <SCORE.SYSTEM.DIHEDRAL>
0

>  <SCORE.SYSTEM.SOLV>
0

>  <SCORE.SYSTEM.norm>
0

>  <SCORE.heavy>
22

>  <SCORE.norm>
-0.854282

>  <RMSD>
12.054

$$$$
2fcx_lig
 OpenBabel11021811433D
libRbt.so/2013.1/901 2013/11/27
 22 23  0  0  0  0  0  0  0  0999 V2000
   27.3866   -3.0316   11.6364 N   0  0  0  0  0  0  0  0  0  0  0  0
   26.1499    0.9134    8.9940 N   0  0  0  0  0  0  0  0  0  0  0  0
   29.5935   -0.4128    6.0070 N   0  0  0  0  0  0  0  0  0  0  0  0
   30.7552    0.2900   10.4371 O   0  0  0  0  0  0  0  0  0  0  0  0
   29.3888    0.1080   10.8183 C   0  0  2  0  0  0  0  0  0  0  0  0
   29.5420    4.8196    9.8636 N   0  0  0  0  0  0  0  0  0  0  0  0
   29.9295   -1.7840   12.1917 O   0  0  0  0  0  0  0  0  0  0  0  0
   29.1145   -1.3735   11.0875 C   0  0  1  0  0  0  0  0  0  0  0  0
   28.6344    2.1049    9.6460 O   0  0  0  0  0  0  0  0  0  0  0  0
   27.6396   -1.5983   11.4286 C   0  0  1  0  0  0  0  0  0  0  0  0
   30.1622    1.6996    7.9158 O   0  0  0  0  0  0  0  0  0  0  0  0
   26.7412   -1.0883   10.2968 C   0  0  0  0  0  0  0  0  0  0  0  0
   28.1265    3.5079    5.4123 O   0  0  0  0  0  0  0  0  0  0  0  0
   27.0009    0.4050   10.0791 C   0  0  1  0  0  0  0  0  0  0  0  0
   28.8203    5.5967    7.1972 O   0  0  0  0  0  0  0  0  0  0  0  0
   28.4675    0.6800    9.7339 C   0  0  2  0  0  0  0  0  0  0  0  0
   29.8959    2.5017    9.0812 C   0  0  1  0  0  0  0  0  0  0  0  0
   29.2037    1.8721    6.8526 C   0  0  2  0  0  0  0  0  0  0  0  0
   29.5834    1.0124    5.6449 C   0  0  0  0  0  0  0  0  0  0  0  0
   29.1439    3.3347    6.4035 C   0  0  2  0  0  0  0  0  0  0  0  0
   28.8144    4.2263    7.6019 C   0  0  1  0  0  0  0  0  0  0  0  0
   29.8577    3.9856    8.6961 C   0  0  1  0  0  0  0  0  0  0  0  0
  5  4  1  6  0  0  0
  5  8  1  0  0  0  0
  5 16  1  0  0  0  0
  8  7  1  1  0  0  0
  8 10  1  0  0  0  0
 10  1  1  6  0  0  0
 10 12  1  0  0  0  0
 11 18  1  0  0  0  0
 12 14  1  0  0  0  0
 14  2  1  6  0  0  0
 14 16  1  0  0  0  0
 16  9  1  1  0  0  0
 17  9  1  6  0  0  0
 17 11  1  0  0  0  0
 17 22  1  0  0  0  0
 18 19  1  6  0  0  0
 18 20  1  0  0  0  0
 19  3  1  0  0  0  0
 20 13  1  6  0  0  0
 20 21  1  0  0  0  0
 21 15  1  6  0  0  0
 21 22  1  0  0  0  0
 22  6  1  1  0  0  0
M  END
>  <CHROM.1>
70.77677872,45.09172686,60.99465509,28.83742378,1.28191272,8.94248333,2.01233137
1.30662604,2.03556534

>  <Name>
2fcx_lig

>  <RI>
2.51704e+07

>  <Rbt.Current_Directory>
/home/itssahil/PROJECTS/Mol_Feturizer/New_Systems/rnas/2fcx

>  <Rbt.Executable>
rbdock ($Id: //depot/dev/client3/rdock/2013.1/src/exe/rbdock.cxx#4 $)

>  <Rbt.Library>
libRbt.so (2013.1, Build901 2013/11/27)

>  <Rbt.Parameter_File>
/export/apps/rDock/src/rDock_2013.1_src/data/scripts/dock_solv.prm

>  <Rbt.Receptor>
prm/blind_docking_80.prm

>  <SCORE>
-18.8054

>  <SCORE.INTER>
-18.1018

>  <SCORE.INTER.CONST>
1

>  <SCORE.INTER.POLAR>
-2.43429

>  <SCORE.INTER.ROT>
3

>  <SCORE.INTER.SOLV>
14.362

>  <SCORE.INTER.VDW>
-14.3409

>  <SCORE.INTER.norm>
-0.82281

>  <SCORE.INTRA>
-1.17634

>  <SCORE.INTRA.DIHEDRAL>
-3.2746

>  <SCORE.INTRA.DIHEDRAL.0>
4.88619

>  <SCORE.INTRA.POLAR>
0

>  <SCORE.INTRA.POLAR.0>
0

>  <SCORE.INTRA.REPUL>
0

>  <SCORE.INTRA.REPUL.0>
0

>  <SCORE.INTRA.SOLV>
-0.384977

>  <SCORE.INTRA.SOLV.lig_0>
-73.8187

>  <SCORE.INTRA.VDW>
0.653449

>  <SCORE.INTRA.VDW.0>
-1.32335

>  <SCORE.INTRA.norm>
-0.05347

>  <SCORE.RESTR>
0.472735

>  <SCORE.RESTR.CAVITY>
0.472735

>  <SCORE.RESTR.norm>
0.0214879

>  <SCORE.SYSTEM>
0

>  <SCORE.SYSTEM.CONST>
0

>  <SCORE.SYSTEM.DIHEDRAL>
0

>  <SCORE.SYSTEM.SOLV>
0

>  <SCORE.SYSTEM.norm>
0

>  <SCORE.heavy>
22

>  <SCORE.norm>
-0.854792

>  <RMSD>
12.054

$$$$
2fcx_lig
 OpenBabel11021811433D
libRbt.so/2013.1/901 2013/11/27
 22 23  0  0  0  0  0  0  0  0999 V2000
   27.4262   -3.0596   11.6000 N   0  0  0  0  0  0  0  0  0  0  0  0
   26.1703    0.8954    8.9817 N   0  0  0  0  0  0  0  0  0  0  0  0
   29.7063   -0.3933    6.0150 N   0  0  0  0  0  0  0  0  0  0  0  0
   30.7778    0.2876   10.4243 O   0  0  0  0  0  0  0  0  0  0  0  0
   29.4121    0.0958   10.8033 C   0  0  2  0  0  0  0  0  0  0  0  0
   29.5376    4.8157    9.8731 N   0  0  0  0  0  0  0  0  0  0  0  0
   29.9619   -1.8019   12.1651 O   0  0  0  0  0  0  0  0  0  0  0  0
   29.1455   -1.3887   11.0629 C   0  0  1  0  0  0  0  0  0  0  0  0
   28.6479    2.0961    9.6430 O   0  0  0  0  0  0  0  0  0  0  0  0
   27.6716   -1.6236   11.4015 C   0  0  1  0  0  0  0  0  0  0  0  0
   30.1817    1.7073    7.9144 O   0  0  0  0  0  0  0  0  0  0  0  0
   26.7713   -1.1113   10.2722 C   0  0  0  0  0  0  0  0  0  0  0  0
   28.1393    3.5123    5.4139 O   0  0  0  0  0  0  0  0  0  0  0  0
   27.0232    0.3847   10.0642 C   0  0  1  0  0  0  0  0  0  0  0  0
   28.8161    5.5985    7.2083 O   0  0  0  0  0  0  0  0  0  0  0  0
   28.4886    0.6697    9.7218 C   0  0  2  0  0  0  0  0  0  0  0  0
   29.9080    2.5031    9.0823 C   0  0  1  0  0  0  0  0  0  0  0  0
   29.2242    1.8779    6.8499 C   0  0  2  0  0  0  0  0  0  0  0  0
   29.6117    1.0254    5.6396 C   0  0  0  0  0  0  0  0  0  0  0  0
   29.1559    3.3417    6.4064 C   0  0  2  0  0  0  0  0  0  0  0  0
   28.8183    4.2266    7.6076 C   0  0  1  0  0  0  0  0  0  0  0  0
   29.8610    3.9883    8.7030 C   0  0  1  0  0  0  0  0  0  0  0  0
  5  4  1  6  0  0  0
  5  8  1  0  0  0  0
  5 16  1  0  0  0  0
  8  7  1  1  0  0  0
  8 10  1  0  0  0  0
 10  1  1  6  0  0  0
 10 12  1  0  0  0  0
 11 18  1  0  0  0  0
 12 14  1  0  0  0  0
 14  2  1  6  0  0  0
 14 16  1  0  0  0  0
 16  9  1  1  0  0  0
 17  9  1  6  0  0  0
 17 11  1  0  0  0  0
 17 22  1  0  0  0  0
 18 19  1  6  0  0  0
 18 20  1  0  0  0  0
 19  3  1  0  0  0  0
 20 13  1  6  0  0  0
 20 21  1  0  0  0  0
 21 15  1  6  0  0  0
 21 22  1  0  0  0  0
 22  6  1  1  0  0  0
M  END
>  <CHROM.1>
70.74860810,44.93643289,57.72012264,28.86024557,1.27654005,8.93477634,2.03508504
1.32608841,2.01760138

>  <Name>
2fcx_lig

>  <RI>
2.51704e+07

>  <Rbt.Current_Directory>
/home/itssahil/PROJECTS/Mol_Feturizer/New_Systems/rnas/2fcx

>  <Rbt.Executable>
rbdock ($Id: //depot/dev/client3/rdock/2013.1/src/exe/rbdock.cxx#4 $)

>  <Rbt.Library>
libRbt.so (2013.1, Build901 2013/11/27)

>  <Rbt.Parameter_File>
/export/apps/rDock/src/rDock_2013.1_src/data/scripts/dock_solv.prm

>  <Rbt.Receptor>
prm/blind_docking_80.prm

>  <SCORE>
-18.918

>  <SCORE.INTER>
-18.261

>  <SCORE.INTER.CONST>
1

>  <SCORE.INTER.POLAR>
-2.45019

>  <SCORE.INTER.ROT>
3

>  <SCORE.INTER.SOLV>
14.108

>  <SCORE.INTER.VDW>
-14.3093

>  <SCORE.INTER.norm>
-0.830044

>  <SCORE.INTRA>
-1.14816

>  <SCORE.INTRA.DIHEDRAL>
-3.23981

>  <SCORE.INTRA.DIHEDRAL.0>
4.88619

>  <SCORE.INTRA.POLAR>
0

>  <SCORE.INTRA.POLAR.0>
0

>  <SCORE.INTRA.REPUL>
0

>  <SCORE.INTRA.REPUL.0>
0

>  <SCORE.INTRA.SOLV>
-0.361681

>  <SCORE.INTRA.SOLV.lig_0>
-73.8187

>  <SCORE.INTRA.VDW>
0.65259

>  <SCORE.INTRA.VDW.0>
-1.32335

>  <SCORE.INTRA.norm>
-0.0521889

>  <SCORE.RESTR>
0.491157

>  <SCORE.RESTR.CAVITY>
0.491157

>  <SCORE.RESTR.norm>
0.0223253

>  <SCORE.SYSTEM>
0

>  <SCORE.SYSTEM.CONST>
0

>  <SCORE.SYSTEM.DIHEDRAL>
0

>  <SCORE.SYSTEM.SOLV>
0

>  <SCORE.SYSTEM.norm>
0

>  <SCORE.heavy>
22

>  <SCORE.norm>
-0.859907

>  <RMSD>
12.060

$$$$
2fcx_lig
 OpenBabel11021811433D
libRbt.so/2013.1/901 2013/11/27
 22 23  0  0  0  0  0  0  0  0999 V2000
   27.0867   -3.0205   11.5628 N   0  0  0  0  0  0  0  0  0  0  0  0
   26.0983    0.9476    8.8515 N   0  0  0  0  0  0  0  0  0  0  0  0
   29.4381   -0.4108    5.9760 N   0  0  0  0  0  0  0  0  0  0  0  0
   30.5937    0.2247   10.5686 O   0  0  0  0  0  0  0  0  0  0  0  0
   29.2032    0.0733   10.8669 C   0  0  2  0  0  0  0  0  0  0  0  0
   29.5491    4.7699    9.9021 N   0  0  0  0  0  0  0  0  0  0  0  0
   29.6186   -1.8285   12.2701 O   0  0  0  0  0  0  0  0  0  0  0  0
   28.8806   -1.4015   11.1190 C   0  0  1  0  0  0  0  0  0  0  0  0
   28.5649    2.0849    9.6517 O   0  0  0  0  0  0  0  0  0  0  0  0
   27.3833   -1.5933   11.3709 C   0  0  1  0  0  0  0  0  0  0  0  0
   30.0759    1.6596    7.9117 O   0  0  0  0  0  0  0  0  0  0  0  0
   26.5660   -1.0650   10.1872 C   0  0  0  0  0  0  0  0  0  0  0  0
   28.0851    3.5573    5.4384 O   0  0  0  0  0  0  0  0  0  0  0  0
   26.8712    0.4219    9.9857 C   0  0  1  0  0  0  0  0  0  0  0  0
   28.8423    5.6020    7.2484 O   0  0  0  0  0  0  0  0  0  0  0  0
   28.3616    0.6641    9.7293 C   0  0  2  0  0  0  0  0  0  0  0  0
   29.8355    2.4535    9.0883 C   0  0  1  0  0  0  0  0  0  0  0  0
   29.1197    1.8730    6.8538 C   0  0  2  0  0  0  0  0  0  0  0  0
   29.4717    1.0190    5.6337 C   0  0  0  0  0  0  0  0  0  0  0  0
   29.0999    3.3425    6.4241 C   0  0  2  0  0  0  0  0  0  0  0  0
   28.7990    4.2272    7.6350 C   0  0  1  0  0  0  0  0  0  0  0  0
   29.8381    3.9428    8.7228 C   0  0  1  0  0  0  0  0  0  0  0  0
  5  4  1  6  0  0  0
  5  8  1  0  0  0  0
  5 16  1  0  0  0  0
  8  7  1  1  0  0  0
  8 10  1  0  0  0  0
 10  1  1  6  0  0  0
 10 12  1  0  0  0  0
 11 18  1  0  0  0  0
 12 14  1  0  0  0  0
 14  2  1  6  0  0  0
 14 16  1  0  0  0  0
 16  9  1  1  0  0  0
 17  9  1  6  0  0  0
 17 11  1  0  0  0  0
 17 22  1  0  0  0  0
 18 19  1  6  0  0  0
 18 20  1  0  0  0  0
 19  3  1  0  0  0  0
 20 13  1  6  0  0  0
 20 21  1  0  0  0  0
 21 15  1  6  0  0  0
 21 22  1  0  0  0  0
 22  6  1  1  0  0  0
M  END
>  <CHROM.1>
74.32458484,45.46077375,61.18852190,28.72086975,1.27143514,8.94304307,2.00838689
1.23473811,2.05071559

>  <Name>
2fcx_lig

>  <RI>
2.63278e+07

>  <Rbt.Current_Directory>
/home/itssahil/PROJECTS/Mol_Feturizer/New_Systems/rnas/2fcx

>  <Rbt.Executable>
rbdock ($Id: //depot/dev/client3/rdock/2013.1/src/exe/rbdock.cxx#4 $)

>  <Rbt.Library>
libRbt.so (2013.1, Build901 2013/11/27)

>  <Rbt.Parameter_File>
/export/apps/rDock/src/rDock_2013.1_src/data/scripts/dock_solv.prm

>  <Rbt.Receptor>
prm/blind_docking_40.prm

>  <SCORE>
-18.407

>  <SCORE.INTER>
-17.2088

>  <SCORE.INTER.CONST>
1

>  <SCORE.INTER.POLAR>
-2.2998

>  <SCORE.INTER.ROT>
3

>  <SCORE.INTER.SOLV>
14.9338

>  <SCORE.INTER.VDW>
-14.3845

>  <SCORE.INTER.norm>
-0.782218

>  <SCORE.INTRA>
-1.2034

>  <SCORE.INTRA.DIHEDRAL>
-2.91377

>  <SCORE.INTRA.DIHEDRAL.0>
4.88619

>  <SCORE.INTRA.POLAR>
0

>  <SCORE.INTRA.POLAR.0>
0

>  <SCORE.INTRA.REPUL>
0

>  <SCORE.INTRA.REPUL.0>
0

>  <SCORE.INTRA.SOLV>
-0.202177

>  <SCORE.INTRA.SOLV.lig_0>
-73.8187

>  <SCORE.INTRA.VDW>
0.354573

>  <SCORE.INTRA.VDW.0>
-1.32335

>  <SCORE.INTRA.norm>
-0.0546999

>  <SCORE.RESTR>
0.0051869

>  <SCORE.RESTR.CAVITY>
0.0051869

>  <SCORE.RESTR.norm>
0.000235768

>  <SCORE.SYSTEM>
0

>  <SCORE.SYSTEM.CONST>
0

>  <SCORE.SYSTEM.DIHEDRAL>
0

>  <SCORE.SYSTEM.SOLV>
0

>  <SCORE.SYSTEM.norm>
0

>  <SCORE.heavy>
22

>  <SCORE.norm>
-0.836682

>  <RMSD>
12.073

$$$$
2fcx_lig
 OpenBabel11021811433D
libRbt.so/2013.1/901 2013/11/27
 22 23  0  0  0  0  0  0  0  0999 V2000
   26.9100    3.6691    0.9770 N   0  0  0  0  0  0  0  0  0  0  0  0
   26.0193    5.5830    5.4062 N   0  0  0  0  0  0  0  0  0  0  0  0
   28.4102   -1.0114    5.8701 N   0  0  0  0  0  0  0  0  0  0  0  0
   28.9899    1.7552    4.9557 O   0  0  0  0  0  0  0  0  0  0  0  0
   27.7990    2.3615    4.4462 C   0  0  2  0  0  0  0  0  0  0  0  0
   25.0376    3.9661    8.4156 N   0  0  0  0  0  0  0  0  0  0  0  0
   28.1287    1.3967    2.2739 O   0  0  0  0  0  0  0  0  0  0  0  0
   27.9569    2.6474    2.9509 C   0  0  1  0  0  0  0  0  0  0  0  0
   27.1605    3.2864    6.6067 O   0  0  0  0  0  0  0  0  0  0  0  0
   26.7192    3.3607    2.4018 C   0  0  1  0  0  0  0  0  0  0  0  0
   26.3958    1.0743    6.4904 O   0  0  0  0  0  0  0  0  0  0  0  0
   26.4639    4.6630    3.1681 C   0  0  0  0  0  0  0  0  0  0  0  0
   27.7649    0.2055    9.8149 O   0  0  0  0  0  0  0  0  0  0  0  0
   26.2629    4.3451    4.6524 C   0  0  1  0  0  0  0  0  0  0  0  0
   25.8126    2.1444   10.4928 O   0  0  0  0  0  0  0  0  0  0  0  0
   27.4790    3.6292    5.2477 C   0  0  2  0  0  0  0  0  0  0  0  0
   26.0052    2.4391    6.7297 C   0  0  1  0  0  0  0  0  0  0  0  0
   27.3436    0.5584    7.4467 C   0  0  2  0  0  0  0  0  0  0  0  0
   27.6735   -0.9037    7.1382 C   0  0  0  0  0  0  0  0  0  0  0  0
   26.7815    0.6361    8.8688 C   0  0  2  0  0  0  0  0  0  0  0  0
   26.3953    2.0809    9.1898 C   0  0  1  0  0  0  0  0  0  0  0  0
   25.4016    2.5711    8.1333 C   0  0  1  0  0  0  0  0  0  0  0  0
  5  4  1  1  0  0  0
  5  8  1  0  0  0  0
  5 16  1  0  0  0  0
  8  7  1  6  0  0  0
  8 10  1  0  0  0  0
 10  1  1  6  0  0  0
 10 12  1  0  0  0  0
 11 18  1  0  0  0  0
 12 14  1  0  0  0  0
 14  2  1  1  0  0  0
 14 16  1  0  0  0  0
 16  9  1  1  0  0  0
 17  9  1  1  0  0  0
 17 11  1  0  0  0  0
 17 22  1  0  0  0  0
 18 19  1  6  0  0  0
 18 20  1  0  0  0  0
 19  3  1  0  0  0  0
 20 13  1  1  0  0  0
 20 21  1  0  0  0  0
 21 15  1  1  0  0  0
 21 22  1  0  0  0  0
 22  6  1  1  0  0  0
M  END
>  <CHROM.1>
-61.42201500,81.93571910,67.22442641,26.97124531,2.26306769,6.01486095,1.38744959
1.05037141,-1.08268107

>  <Name>
2fcx_lig

>  <RI>
224

>  <Rbt.Current_Directory>
/home/itssahil/PROJECTS/Mol_Feturizer/New_Systems/rnas/2fcx

>  <Rbt.Executable>
rbdock ($Id: //depot/dev/client3/rdock/2013.1/src/exe/rbdock.cxx#4 $)

>  <Rbt.Library>
libRbt.so (2013.1, Build901 2013/11/27)

>  <Rbt.Parameter_File>
/export/apps/rDock/src/rDock_2013.1_src/data/scripts/dock_solv.prm

>  <Rbt.Receptor>
prm/blind_docking_60.prm

>  <SCORE>
-5.47525

>  <SCORE.INTER>
-6.13042

>  <SCORE.INTER.CONST>
1

>  <SCORE.INTER.POLAR>
-0.381108

>  <SCORE.INTER.ROT>
3

>  <SCORE.INTER.SOLV>
8.22615

>  <SCORE.INTER.VDW>
-11.1586

>  <SCORE.INTER.norm>
-0.278656

>  <SCORE.INTRA>
0.655175

>  <SCORE.INTRA.DIHEDRAL>
-2.56131

>  <SCORE.INTRA.DIHEDRAL.0>
4.88619

>  <SCORE.INTRA.POLAR>
0

>  <SCORE.INTRA.POLAR.0>
0

>  <SCORE.INTRA.REPUL>
0

>  <SCORE.INTRA.REPUL.0>
0

>  <SCORE.INTRA.SOLV>
2.66686

>  <SCORE.INTRA.SOLV.lig_0>
-73.8187

>  <SCORE.INTRA.VDW>
0.602404

>  <SCORE.INTRA.VDW.0>
-1.32335

>  <SCORE.INTRA.norm>
0.0297807

>  <SCORE.RESTR>
0

>  <SCORE.RESTR.CAVITY>
0

>  <SCORE.RESTR.norm>
0

>  <SCORE.SYSTEM>
0

>  <SCORE.SYSTEM.CONST>
0

>  <SCORE.SYSTEM.DIHEDRAL>
0

>  <SCORE.SYSTEM.SOLV>
0

>  <SCORE.SYSTEM.norm>
0

>  <SCORE.heavy>
22

>  <SCORE.norm>
-0.248875

>  <RMSD>
12.074

$$$$
2fcx_lig
 OpenBabel11021811433D
libRbt.so/2013.1/901 2013/11/27
 22 23  0  0  0  0  0  0  0  0999 V2000
   27.4157   -3.0403   11.5164 N   0  0  0  0  0  0  0  0  0  0  0  0
   26.1879    0.9544    8.9454 N   0  0  0  0  0  0  0  0  0  0  0  0
   28.5714    0.9237    4.7049 N   0  0  0  0  0  0  0  0  0  0  0  0
   30.7782    0.3274   10.4341 O   0  0  0  0  0  0  0  0  0  0  0  0
   29.4082    0.1287   10.7935 C   0  0  2  0  0  0  0  0  0  0  0  0
   29.4997    4.8841    9.8401 N   0  0  0  0  0  0  0  0  0  0  0  0
   29.9432   -1.7897   12.1319 O   0  0  0  0  0  0  0  0  0  0  0  0
   29.1399   -1.3600   11.0265 C   0  0  1  0  0  0  0  0  0  0  0  0
   28.6562    2.1463    9.6556 O   0  0  0  0  0  0  0  0  0  0  0  0
   27.6622   -1.6012   11.3435 C   0  0  1  0  0  0  0  0  0  0  0  0
   30.2092    1.7501    7.9459 O   0  0  0  0  0  0  0  0  0  0  0  0
   26.7752   -1.0719   10.2115 C   0  0  0  0  0  0  0  0  0  0  0  0
   28.1569    3.4735    5.3965 O   0  0  0  0  0  0  0  0  0  0  0  0
   27.0281    0.4274   10.0300 C   0  0  1  0  0  0  0  0  0  0  0  0
   28.7860    5.6042    7.1557 O   0  0  0  0  0  0  0  0  0  0  0  0
   28.4973    0.7188    9.7100 C   0  0  2  0  0  0  0  0  0  0  0  0
   29.9137    2.5633    9.0964 C   0  0  1  0  0  0  0  0  0  0  0  0
   29.2573    1.8847    6.8714 C   0  0  2  0  0  0  0  0  0  0  0  0
   29.6678    1.0158    5.6805 C   0  0  0  0  0  0  0  0  0  0  0  0
   29.1685    3.3386    6.3996 C   0  0  2  0  0  0  0  0  0  0  0  0
   28.8074    4.2404    7.5811 C   0  0  1  0  0  0  0  0  0  0  0  0
   29.8455    4.0401    8.6885 C   0  0  1  0  0  0  0  0  0  0  0  0
  5  4  1  6  0  0  0
  5  8  1  0  0  0  0
  5 16  1  0  0  0  0
  8  7  1  1  0  0  0
  8 10  1  0  0  0  0
 10  1  1  6  0  0  0
 10 12  1  0  0  0  0
 11 18  1  0  0  0  0
 12 14  1  0  0  0  0
 14  2  1  6  0  0  0
 14 16  1  0  0  0  0
 16  9  1  1  0  0  0
 17  9  1  6  0  0  0
 17 11  1  0  0  0  0
 17 22  1  0  0  0  0
 18 19  1  6  0  0  0
 18 20  1  0  0  0  0
 19  3  1  0  0  0  0
 20 13  1  6  0  0  0
 20 21  1  0  0  0  0
 21 15  1  6  0  0  0
 21 22  1  0  0  0  0
 22  6  1  1  0  0  0
M  END
>  <CHROM.1>
71.70865557,42.54220573,168.00454234,28.81143958,1.36254282,8.85848006,1.80569562
1.14800711,2.21332022

>  <Name>
2fcx_lig

>  <RI>
2.51704e+07

>  <Rbt.Current_Directory>
/home/itssahil/PROJECTS/Mol_Feturizer/New_Systems/rnas/2fcx

>  <Rbt.Executable>
rbdock ($Id: //depot/dev/client3/rdock/2013.1/src/exe/rbdock.cxx#4 $)

>  <Rbt.Library>
libRbt.so (2013.1, Build901 2013/11/27)

>  <Rbt.Parameter_File>
/export/apps/rDock/src/rDock_2013.1_src/data/scripts/dock_solv.prm

>  <Rbt.Receptor>
prm/blind_docking_80.prm

>  <SCORE>
-17.7915

>  <SCORE.INTER>
-18.2793

>  <SCORE.INTER.CONST>
1

>  <SCORE.INTER.POLAR>
-2.42696

>  <SCORE.INTER.ROT>
3

>  <SCORE.INTER.SOLV>
14.1627

>  <SCORE.INTER.VDW>
-14.4172

>  <SCORE.INTER.norm>
-0.830875

>  <SCORE.INTRA>
0.039528

>  <SCORE.INTRA.DIHEDRAL>
-2.31169

>  <SCORE.INTRA.DIHEDRAL.0>
4.88619

>  <SCORE.INTRA.POLAR>
0

>  <SCORE.INTRA.POLAR.0>
0

>  <SCORE.INTRA.REPUL>
0

>  <SCORE.INTRA.REPUL.0>
0

>  <SCORE.INTRA.SOLV>
0.427937

>  <SCORE.INTRA.SOLV.lig_0>
-73.8187

>  <SCORE.INTRA.VDW>
0.981403

>  <SCORE.INTRA.VDW.0>
-1.32335

>  <SCORE.INTRA.norm>
0.00179673

>  <SCORE.RESTR>
0.448217

>  <SCORE.RESTR.CAVITY>
0.448217

>  <SCORE.RESTR.norm>
0.0203735

>  <SCORE.SYSTEM>
0

>  <SCORE.SYSTEM.CONST>
0

>  <SCORE.SYSTEM.DIHEDRAL>
0

>  <SCORE.SYSTEM.SOLV>
0

>  <SCORE.SYSTEM.norm>
0

>  <SCORE.heavy>
22

>  <SCORE.norm>
-0.808705

>  <RMSD>
12.076

$$$$
2fcx_lig
 OpenBabel11021811433D
libRbt.so/2013.1/901 2013/11/27
 22 23  0  0  0  0  0  0  0  0999 V2000
   27.3794   -3.0318   11.6270 N   0  0  0  0  0  0  0  0  0  0  0  0
   26.1413    0.9283    9.0081 N   0  0  0  0  0  0  0  0  0  0  0  0
   28.5392    0.9619    4.6745 N   0  0  0  0  0  0  0  0  0  0  0  0
   30.7518    0.2853   10.4258 O   0  0  0  0  0  0  0  0  0  0  0  0
   29.3867    0.1055   10.8129 C   0  0  2  0  0  0  0  0  0  0  0  0
   29.5321    4.8279    9.8608 N   0  0  0  0  0  0  0  0  0  0  0  0
   29.9286   -1.7940   12.1753 O   0  0  0  0  0  0  0  0  0  0  0  0
   29.1094   -1.3763   11.0769 C   0  0  1  0  0  0  0  0  0  0  0  0
   28.6325    2.1098    9.6531 O   0  0  0  0  0  0  0  0  0  0  0  0
   27.6356   -1.5983   11.4243 C   0  0  1  0  0  0  0  0  0  0  0  0
   30.1776    1.6960    7.9405 O   0  0  0  0  0  0  0  0  0  0  0  0
   26.7331   -1.0808   10.2991 C   0  0  0  0  0  0  0  0  0  0  0  0
   28.1623    3.4826    5.4052 O   0  0  0  0  0  0  0  0  0  0  0  0
   26.9961    0.4127   10.0867 C   0  0  1  0  0  0  0  0  0  0  0  0
   28.8344    5.5851    7.1823 O   0  0  0  0  0  0  0  0  0  0  0  0
   28.4618    0.6850    9.7356 C   0  0  2  0  0  0  0  0  0  0  0  0
   29.8985    2.5054    9.0977 C   0  0  1  0  0  0  0  0  0  0  0  0
   29.2291    1.8591    6.8669 C   0  0  2  0  0  0  0  0  0  0  0  0
   29.6221    0.9920    5.6689 C   0  0  0  0  0  0  0  0  0  0  0  0
   29.1705    3.3184    6.4073 C   0  0  2  0  0  0  0  0  0  0  0  0
   28.8276    4.2176    7.5963 C   0  0  1  0  0  0  0  0  0  0  0  0
   29.8608    3.9866    8.7022 C   0  0  1  0  0  0  0  0  0  0  0  0
  5  4  1  6  0  0  0
  5  8  1  0  0  0  0
  5 16  1  0  0  0  0
  8  7  1  1  0  0  0
  8 10  1  0  0  0  0
 10  1  1  6  0  0  0
 10 12  1  0  0  0  0
 11 18  1  0  0  0  0
 12 14  1  0  0  0  0
 14  2  1  6  0  0  0
 14 16  1  0  0  0  0
 16  9  1  1  0  0  0
 17  9  1  6  0  0  0
 17 11  1  0  0  0  0
 17 22  1  0  0  0  0
 18 19  1  6  0  0  0
 18 20  1  0  0  0  0
 19  3  1  0  0  0  0
 20 13  1  6  0  0  0
 20 21  1  0  0  0  0
 21 15  1  6  0  0  0
 21 22  1  0  0  0  0
 22  6  1  1  0  0  0
M  END
>  <CHROM.1>
70.11678169,44.44597740,169.62207109,28.79516634,1.34075711,8.88369555,1.81432326
1.13561817,2.19397407

>  <Name>
2fcx_lig

>  <RI>
2.51704e+07

>  <Rbt.Current_Directory>
/home/itssahil/PROJECTS/Mol_Feturizer/New_Systems/rnas/2fcx

>  <Rbt.Executable>
rbdock ($Id: //depot/dev/client3/rdock/2013.1/src/exe/rbdock.cxx#4 $)

>  <Rbt.Library>
libRbt.so (2013.1, Build901 2013/11/27)

>  <Rbt.Parameter_File>
/export/apps/rDock/src/rDock_2013.1_src/data/scripts/dock_solv.prm

>  <Rbt.Receptor>
prm/blind_docking_80.prm

>  <SCORE>
-17.9562

>  <SCORE.INTER>
-18.2591

>  <SCORE.INTER.CONST>
1

>  <SCORE.INTER.POLAR>
-2.43181

>  <SCORE.INTER.ROT>
3

>  <SCORE.INTER.SOLV>
14.653

>  <SCORE.INTER.VDW>
-14.551

>  <SCORE.INTER.norm>
-0.829959

>  <SCORE.INTRA>
-0.166296

>  <SCORE.INTRA.DIHEDRAL>
-2.87059

>  <SCORE.INTRA.DIHEDRAL.0>
4.88619

>  <SCORE.INTRA.POLAR>
0

>  <SCORE.INTRA.POLAR.0>
0

>  <SCORE.INTRA.REPUL>
0

>  <SCORE.INTRA.REPUL.0>
0

>  <SCORE.INTRA.SOLV>
0.366849

>  <SCORE.INTRA.SOLV.lig_0>
-73.8187

>  <SCORE.INTRA.VDW>
1.08558

>  <SCORE.INTRA.VDW.0>
-1.32335

>  <SCORE.INTRA.norm>
-0.00755891

>  <SCORE.RESTR>
0.469137

>  <SCORE.RESTR.CAVITY>
0.469137

>  <SCORE.RESTR.norm>
0.0213244

>  <SCORE.SYSTEM>
0

>  <SCORE.SYSTEM.CONST>
0

>  <SCORE.SYSTEM.DIHEDRAL>
0

>  <SCORE.SYSTEM.SOLV>
0

>  <SCORE.SYSTEM.norm>
0

>  <SCORE.heavy>
22

>  <SCORE.norm>
-0.816193

>  <RMSD>
12.086

$$$$
2fcx_lig
 OpenBabel11021811433D
libRbt.so/2013.1/901 2013/11/27
 22 23  0  0  0  0  0  0  0  0999 V2000
   27.1446    3.2094    1.7252 N   0  0  0  0  0  0  0  0  0  0  0  0
   28.5301    0.1286    5.2839 N   0  0  0  0  0  0  0  0  0  0  0  0
   26.4070   -3.0416    8.3822 N   0  0  0  0  0  0  0  0  0  0  0  0
   25.3813    3.7113    6.2482 O   0  0  0  0  0  0  0  0  0  0  0  0
   26.5410    3.3643    5.4864 C   0  0  2  0  0  0  0  0  0  0  0  0
   27.6406    3.1948    9.7527 N   0  0  0  0  0  0  0  0  0  0  0  0
   25.9671    4.9073    3.7406 O   0  0  0  0  0  0  0  0  0  0  0  0
   26.2520    3.5261    3.9922 C   0  0  1  0  0  0  0  0  0  0  0  0
   27.4194    1.8833    7.2087 O   0  0  0  0  0  0  0  0  0  0  0  0
   27.4586    3.0921    3.1567 C   0  0  1  0  0  0  0  0  0  0  0  0
   25.6295    0.5910    7.9950 O   0  0  0  0  0  0  0  0  0  0  0  0
   27.8372    1.6408    3.4709 C   0  0  0  0  0  0  0  0  0  0  0  0
   27.8320   -1.6492    9.9476 O   0  0  0  0  0  0  0  0  0  0  0  0
   28.1668    1.5157    4.9611 C   0  0  1  0  0  0  0  0  0  0  0  0
   28.2284    0.8281   11.2652 O   0  0  0  0  0  0  0  0  0  0  0  0
   26.9859    1.9398    5.8394 C   0  0  2  0  0  0  0  0  0  0  0  0
   26.3357    1.8356    8.1527 C   0  0  1  0  0  0  0  0  0  0  0  0
   26.4266   -0.5765    8.2788 C   0  0  2  0  0  0  0  0  0  0  0  0
   25.5891   -1.8476    8.1216 C   0  0  0  0  0  0  0  0  0  0  0  0
   26.9708   -0.5315    9.7092 C   0  0  2  0  0  0  0  0  0  0  0  0
   27.7731    0.7547    9.9128 C   0  0  1  0  0  0  0  0  0  0  0  0
   26.8769    1.9513    9.5829 C   0  0  1  0  0  0  0  0  0  0  0  0
  5  4  1  1  0  0  0
  5  8  1  0  0  0  0
  5 16  1  0  0  0  0
  8  7  1  1  0  0  0
  8 10  1  0  0  0  0
 10  1  1  6  0  0  0
 10 12  1  0  0  0  0
 11 18  1  0  0  0  0
 12 14  1  0  0  0  0
 14  2  1  6  0  0  0
 14 16  1  0  0  0  0
 16  9  1  1  0  0  0
 17  9  1  6  0  0  0
 17 11  1  0  0  0  0
 17 22  1  0  0  0  0
 18 19  1  1  0  0  0
 18 20  1  0  0  0  0
 19  3  1  0  0  0  0
 20 13  1  6  0  0  0
 20 21  1  0  0  0  0
 21 15  1  1  0  0  0
 21 22  1  0  0  0  0
 22  6  1  6  0  0  0
M  END
>  <CHROM.1>
78.35262726,66.27277632,178.78287029,26.96336008,1.38589161,6.95047129,-2.19918546
-1.50590014,1.50470841

>  <Name>
2fcx_lig

>  <RI>
224

>  <Rbt.Current_Directory>
/home/itssahil/PROJECTS/Mol_Feturizer/New_Systems/rnas/2fcx

>  <Rbt.Executable>
rbdock ($Id: //depot/dev/client3/rdock/2013.1/src/exe/rbdock.cxx#4 $)

>  <Rbt.Library>
libRbt.so (2013.1, Build901 2013/11/27)

>  <Rbt.Parameter_File>
/export/apps/rDock/src/rDock_2013.1_src/data/scripts/dock_solv.prm

>  <Rbt.Receptor>
prm/blind_docking_60.prm

>  <SCORE>
-11.7101

>  <SCORE.INTER>
-11.1582

>  <SCORE.INTER.CONST>
1

>  <SCORE.INTER.POLAR>
-1.52388

>  <SCORE.INTER.ROT>
3

>  <SCORE.INTER.SOLV>
14.0166

>  <SCORE.INTER.VDW>
-12.6314

>  <SCORE.INTER.norm>
-0.507189

>  <SCORE.INTRA>
-0.551987

>  <SCORE.INTRA.DIHEDRAL>
-3.14118

>  <SCORE.INTRA.DIHEDRAL.0>
4.88619

>  <SCORE.INTRA.POLAR>
0

>  <SCORE.INTRA.POLAR.0>
0

>  <SCORE.INTRA.REPUL>
0

>  <SCORE.INTRA.REPUL.0>
0

>  <SCORE.INTRA.SOLV>
0.921651

>  <SCORE.INTRA.SOLV.lig_0>
-73.8187

>  <SCORE.INTRA.VDW>
0.557775

>  <SCORE.INTRA.VDW.0>
-1.32335

>  <SCORE.INTRA.norm>
-0.0250903

>  <SCORE.RESTR>
0

>  <SCORE.RESTR.CAVITY>
0

>  <SCORE.RESTR.norm>
0

>  <SCORE.SYSTEM>
0

>  <SCORE.SYSTEM.CONST>
0

>  <SCORE.SYSTEM.DIHEDRAL>
0

>  <SCORE.SYSTEM.SOLV>
0

>  <SCORE.SYSTEM.norm>
0

>  <SCORE.heavy>
22

>  <SCORE.norm>
-0.532279

>  <RMSD>
12.089

$$$$
2fcx_lig
 OpenBabel11021811433D
libRbt.so/2013.1/901 2013/11/27
 22 23  0  0  0  0  0  0  0  0999 V2000
   27.4217   -3.0553   11.5958 N   0  0  0  0  0  0  0  0  0  0  0  0
   26.1539    0.9083    8.9963 N   0  0  0  0  0  0  0  0  0  0  0  0
   28.5366    0.9553    4.6748 N   0  0  0  0  0  0  0  0  0  0  0  0
   30.7674    0.2971   10.4181 O   0  0  0  0  0  0  0  0  0  0  0  0
   29.4033    0.1036   10.8020 C   0  0  2  0  0  0  0  0  0  0  0  0
   29.5038    4.8356    9.8556 N   0  0  0  0  0  0  0  0  0  0  0  0
   29.9593   -1.7986   12.1550 O   0  0  0  0  0  0  0  0  0  0  0  0
   29.1383   -1.3820   11.0575 C   0  0  1  0  0  0  0  0  0  0  0  0
   28.6337    2.1076    9.6518 O   0  0  0  0  0  0  0  0  0  0  0  0
   27.6659   -1.6185   11.4013 C   0  0  1  0  0  0  0  0  0  0  0  0
   30.1779    1.7103    7.9344 O   0  0  0  0  0  0  0  0  0  0  0  0
   26.7609   -1.1026   10.2774 C   0  0  0  0  0  0  0  0  0  0  0  0
   28.1347    3.4734    5.4050 O   0  0  0  0  0  0  0  0  0  0  0  0
   27.0113    0.3942   10.0736 C   0  0  1  0  0  0  0  0  0  0  0  0
   28.7891    5.5839    7.1792 O   0  0  0  0  0  0  0  0  0  0  0  0
   28.4752    0.6809    9.7263 C   0  0  2  0  0  0  0  0  0  0  0  0
   29.8935    2.5171    9.0923 C   0  0  1  0  0  0  0  0  0  0  0  0
   29.2241    1.8625    6.8639 C   0  0  2  0  0  0  0  0  0  0  0  0
   29.6230    0.9993    5.6649 C   0  0  0  0  0  0  0  0  0  0  0  0
   29.1478    3.3208    6.4039 C   0  0  2  0  0  0  0  0  0  0  0  0
   28.7988    4.2166    7.5936 C   0  0  1  0  0  0  0  0  0  0  0  0
   29.8381    3.9976    8.6963 C   0  0  1  0  0  0  0  0  0  0  0  0
  5  4  1  6  0  0  0
  5  8  1  0  0  0  0
  5 16  1  0  0  0  0
  8  7  1  1  0  0  0
  8 10  1  0  0  0  0
 10  1  1  6  0  0  0
 10 12  1  0  0  0  0
 11 18  1  0  0  0  0
 12 14  1  0  0  0  0
 14  2  1  6  0  0  0
 14 16  1  0  0  0  0
 16  9  1  1  0  0  0
 17  9  1  6  0  0  0
 17 11  1  0  0  0  0
 17 22  1  0  0  0  0
 18 19  1  6  0  0  0
 18 20  1  0  0  0  0
 19  3  1  0  0  0  0
 20 13  1  6  0  0  0
 20 21  1  0  0  0  0
 21 15  1  6  0  0  0
 21 22  1  0  0  0  0
 22  6  1  1  0  0  0
M  END
>  <CHROM.1>
70.51847704,44.01481082,169.54532904,28.79709183,1.33767433,8.87434435,1.79736044
1.14160771,2.21331748

>  <Name>
2fcx_lig

>  <RI>
2.51704e+07

>  <Rbt.Current_Directory>
/home/itssahil/PROJECTS/Mol_Feturizer/New_Systems/rnas/2fcx

>  <Rbt.Executable>
rbdock ($Id: //depot/dev/client3/rdock/2013.1/src/exe/rbdock.cxx#4 $)

>  <Rbt.Library>
libRbt.so (2013.1, Build901 2013/11/27)

>  <Rbt.Parameter_File>
/export/apps/rDock/src/rDock_2013.1_src/data/scripts/dock_solv.prm

>  <Rbt.Receptor>
prm/blind_docking_80.prm

>  <SCORE>
-18.0007

>  <SCORE.INTER>
-18.3655

>  <SCORE.INTER.CONST>
1

>  <SCORE.INTER.POLAR>
-2.44555

>  <SCORE.INTER.ROT>
3

>  <SCORE.INTER.SOLV>
14.3893

>  <SCORE.INTER.VDW>
-14.4883

>  <SCORE.INTER.norm>
-0.834798

>  <SCORE.INTRA>
-0.120423

>  <SCORE.INTRA.DIHEDRAL>
-2.76642

>  <SCORE.INTRA.DIHEDRAL.0>
4.88619

>  <SCORE.INTRA.POLAR>
0

>  <SCORE.INTRA.POLAR.0>
0

>  <SCORE.INTRA.REPUL>
0

>  <SCORE.INTRA.REPUL.0>
0

>  <SCORE.INTRA.SOLV>
0.387298

>  <SCORE.INTRA.SOLV.lig_0>
-73.8187

>  <SCORE.INTRA.VDW>
1.06914

>  <SCORE.INTRA.VDW.0>
-1.32335

>  <SCORE.INTRA.norm>
-0.00547378

>  <SCORE.RESTR>
0.485272

>  <SCORE.RESTR.CAVITY>
0.485272

>  <SCORE.RESTR.norm>
0.0220578

>  <SCORE.SYSTEM>
0

>  <SCORE.SYSTEM.CONST>
0

>  <SCORE.SYSTEM.DIHEDRAL>
0

>  <SCORE.SYSTEM.SOLV>
0

>  <SCORE.SYSTEM.norm>
0

>  <SCORE.heavy>
22

>  <SCORE.norm>
-0.818214

>  <RMSD>
12.090

$$$$
2fcx_lig
 OpenBabel11021811433D
libRbt.so/2013.1/901 2013/11/27
 22 23  0  0  0  0  0  0  0  0999 V2000
   27.3821   -3.0398   11.6058 N   0  0  0  0  0  0  0  0  0  0  0  0
   26.1400    0.9296    9.0027 N   0  0  0  0  0  0  0  0  0  0  0  0
   28.5328    0.9293    4.6904 N   0  0  0  0  0  0  0  0  0  0  0  0
   30.7522    0.2828   10.4133 O   0  0  0  0  0  0  0  0  0  0  0  0
   29.3876    0.1012   10.8011 C   0  0  2  0  0  0  0  0  0  0  0  0
   29.5265    4.8288    9.8613 N   0  0  0  0  0  0  0  0  0  0  0  0
   29.9315   -1.8032   12.1560 O   0  0  0  0  0  0  0  0  0  0  0  0
   29.1110   -1.3817   11.0600 C   0  0  1  0  0  0  0  0  0  0  0  0
   28.6315    2.1095    9.6494 O   0  0  0  0  0  0  0  0  0  0  0  0
   27.6376   -1.6054   11.4081 C   0  0  1  0  0  0  0  0  0  0  0  0
   30.1807    1.6995    7.9396 O   0  0  0  0  0  0  0  0  0  0  0  0
   26.7338   -1.0840   10.2858 C   0  0  0  0  0  0  0  0  0  0  0  0
   28.1676    3.4853    5.4019 O   0  0  0  0  0  0  0  0  0  0  0  0
   26.9961    0.4103   10.0786 C   0  0  1  0  0  0  0  0  0  0  0  0
   28.8329    5.5872    7.1821 O   0  0  0  0  0  0  0  0  0  0  0  0
   28.4614    0.6843    9.7269 C   0  0  2  0  0  0  0  0  0  0  0  0
   29.8980    2.5076    9.0969 C   0  0  1  0  0  0  0  0  0  0  0  0
   29.2340    1.8622    6.8643 C   0  0  2  0  0  0  0  0  0  0  0  0
   29.6307    0.9967    5.6662 C   0  0  0  0  0  0  0  0  0  0  0  0
   29.1740    3.3218    6.4058 C   0  0  2  0  0  0  0  0  0  0  0  0
   28.8274    4.2193    7.5949 C   0  0  1  0  0  0  0  0  0  0  0  0
   29.8588    3.9890    8.7026 C   0  0  1  0  0  0  0  0  0  0  0  0
  5  4  1  6  0  0  0
  5  8  1  0  0  0  0
  5 16  1  0  0  0  0
  8  7  1  1  0  0  0
  8 10  1  0  0  0  0
 10  1  1  6  0  0  0
 10 12  1  0  0  0  0
 11 18  1  0  0  0  0
 12 14  1  0  0  0  0
 14  2  1  6  0  0  0
 14 16  1  0  0  0  0
 16  9  1  1  0  0  0
 17  9  1  6  0  0  0
 17 11  1  0  0  0  0
 17 22  1  0  0  0  0
 18 19  1  6  0  0  0
 18 20  1  0  0  0  0
 19  3  1  0  0  0  0
 20 13  1  6  0  0  0
 20 21  1  0  0  0  0
 21 15  1  6  0  0  0
 21 22  1  0  0  0  0
 22  6  1  1  0  0  0
M  END
>  <CHROM.1>
69.98936728,44.28061646,167.73805948,28.79597789,1.33859441,8.87761641,1.81677874
1.13880380,2.19537057

>  <Name>
2fcx_lig

>  <RI>
2.51704e+07

>  <Rbt.Current_Directory>
/home/itssahil/PROJECTS/Mol_Feturizer/New_Systems/rnas/2fcx

>  <Rbt.Executable>
rbdock ($Id: //depot/dev/client3/rdock/2013.1/src/exe/rbdock.cxx#4 $)

>  <Rbt.Library>
libRbt.so (2013.1, Build901 2013/11/27)

>  <Rbt.Parameter_File>
/export/apps/rDock/src/rDock_2013.1_src/data/scripts/dock_solv.prm

>  <Rbt.Receptor>
prm/blind_docking_80.prm

>  <SCORE>
-17.9524

>  <SCORE.INTER>
-18.2753

>  <SCORE.INTER.CONST>
1

>  <SCORE.INTER.POLAR>
-2.43251

>  <SCORE.INTER.ROT>
3

>  <SCORE.INTER.SOLV>
14.6102

>  <SCORE.INTER.VDW>
-14.5452

>  <SCORE.INTER.norm>
-0.830697

>  <SCORE.INTRA>
-0.147224

>  <SCORE.INTRA.DIHEDRAL>
-2.71401

>  <SCORE.INTRA.DIHEDRAL.0>
4.88619

>  <SCORE.INTRA.POLAR>
0

>  <SCORE.INTRA.POLAR.0>
0

>  <SCORE.INTRA.REPUL>
0

>  <SCORE.INTRA.REPUL.0>
0

>  <SCORE.INTRA.SOLV>
0.320389

>  <SCORE.INTRA.SOLV.lig_0>
-73.8187

>  <SCORE.INTRA.VDW>
1.04959

>  <SCORE.INTRA.VDW.0>
-1.32335

>  <SCORE.INTRA.norm>
-0.00669199

>  <SCORE.RESTR>
0.470126

>  <SCORE.RESTR.CAVITY>
0.470126

>  <SCORE.RESTR.norm>
0.0213694

>  <SCORE.SYSTEM>
0

>  <SCORE.SYSTEM.CONST>
0

>  <SCORE.SYSTEM.DIHEDRAL>
0

>  <SCORE.SYSTEM.SOLV>
0

>  <SCORE.SYSTEM.norm>
0

>  <SCORE.heavy>
22

>  <SCORE.norm>
-0.816019

>  <RMSD>
12.090

$$$$
2fcx_lig
 OpenBabel11021811433D
libRbt.so/2013.1/901 2013/11/27
 22 23  0  0  0  0  0  0  0  0999 V2000
   27.0835   -3.0239   11.7299 N   0  0  0  0  0  0  0  0  0  0  0  0
   26.1153    0.8734    8.9105 N   0  0  0  0  0  0  0  0  0  0  0  0
   29.6607   -0.5930    6.1649 N   0  0  0  0  0  0  0  0  0  0  0  0
   30.6002    0.1902   10.6709 O   0  0  0  0  0  0  0  0  0  0  0  0
   29.2079    0.0482   10.9653 C   0  0  2  0  0  0  0  0  0  0  0  0
   29.5427    4.7245    9.9001 N   0  0  0  0  0  0  0  0  0  0  0  0
   29.6129   -1.8168   12.4199 O   0  0  0  0  0  0  0  0  0  0  0  0
   28.8819   -1.4191   11.2539 C   0  0  1  0  0  0  0  0  0  0  0  0
   28.5789    2.0283    9.6945 O   0  0  0  0  0  0  0  0  0  0  0  0
   27.3830   -1.6025   11.5024 C   0  0  1  0  0  0  0  0  0  0  0  0
   30.1809    1.5473    8.0532 O   0  0  0  0  0  0  0  0  0  0  0  0
   26.5730   -1.1043   10.3008 C   0  0  0  0  0  0  0  0  0  0  0  0
   28.3199    3.3473    5.4116 O   0  0  0  0  0  0  0  0  0  0  0  0
   26.8812    0.3765   10.0623 C   0  0  1  0  0  0  0  0  0  0  0  0
   28.9756    5.4584    7.1846 O   0  0  0  0  0  0  0  0  0  0  0  0
   28.3733    0.6102    9.8080 C   0  0  2  0  0  0  0  0  0  0  0  0
   29.8768    2.3816    9.1862 C   0  0  1  0  0  0  0  0  0  0  0  0
   29.2817    1.7189    6.9392 C   0  0  2  0  0  0  0  0  0  0  0  0
   29.6997    0.8233    5.7709 C   0  0  0  0  0  0  0  0  0  0  0  0
   29.2815    3.1719    6.4567 C   0  0  2  0  0  0  0  0  0  0  0  0
   28.9149    4.0981    7.6175 C   0  0  1  0  0  0  0  0  0  0  0  0
   29.8955    3.8570    8.7682 C   0  0  1  0  0  0  0  0  0  0  0  0
  5  4  1  6  0  0  0
  5  8  1  0  0  0  0
  5 16  1  0  0  0  0
  8  7  1  1  0  0  0
  8 10  1  0  0  0  0
 10  1  1  6  0  0  0
 10 12  1  0  0  0  0
 11 18  1  0  0  0  0
 12 14  1  0  0  0  0
 14  2  1  6  0  0  0
 14 16  1  0  0  0  0
 16  9  1  1  0  0  0
 17  9  1  6  0  0  0
 17 11  1  0  0  0  0
 17 22  1  0  0  0  0
 18 19  1  6  0  0  0
 18 20  1  0  0  0  0
 19  3  1  0  0  0  0
 20 13  1  6  0  0  0
 20 21  1  0  0  0  0
 21 15  1  6  0  0  0
 21 22  1  0  0  0  0
 22  6  1  1  0  0  0
M  END
>  <CHROM.1>
71.62375529,45.26700245,60.77502869,28.79162315,1.18689614,9.02292828,2.20247622
1.28926427,1.82948645

>  <Name>
2fcx_lig

>  <RI>
224

>  <Rbt.Current_Directory>
/home/itssahil/PROJECTS/Mol_Feturizer/New_Systems/rnas/2fcx

>  <Rbt.Executable>
rbdock ($Id: //depot/dev/client3/rdock/2013.1/src/exe/rbdock.cxx#4 $)

>  <Rbt.Library>
libRbt.so (2013.1, Build901 2013/11/27)

>  <Rbt.Parameter_File>
/export/apps/rDock/src/rDock_2013.1_src/data/scripts/dock_solv.prm

>  <Rbt.Receptor>
prm/blind_docking_60.prm

>  <SCORE>
-18.5647

>  <SCORE.INTER>
-17.3683

>  <SCORE.INTER.CONST>
1

>  <SCORE.INTER.POLAR>
-2.27875

>  <SCORE.INTER.ROT>
3

>  <SCORE.INTER.SOLV>
15.2689

>  <SCORE.INTER.VDW>
-14.6726

>  <SCORE.INTER.norm>
-0.789467

>  <SCORE.INTRA>
-1.20147

>  <SCORE.INTRA.DIHEDRAL>
-3.21069

>  <SCORE.INTRA.DIHEDRAL.0>
4.88619

>  <SCORE.INTRA.POLAR>
0

>  <SCORE.INTRA.POLAR.0>
0

>  <SCORE.INTRA.REPUL>
0

>  <SCORE.INTRA.REPUL.0>
0

>  <SCORE.INTRA.SOLV>
-0.356476

>  <SCORE.INTRA.SOLV.lig_0>
-73.8187

>  <SCORE.INTRA.VDW>
0.582109

>  <SCORE.INTRA.VDW.0>
-1.32335

>  <SCORE.INTRA.norm>
-0.0546124

>  <SCORE.RESTR>
0.00502475

>  <SCORE.RESTR.CAVITY>
0.00502475

>  <SCORE.RESTR.norm>
0.000228398

>  <SCORE.SYSTEM>
0

>  <SCORE.SYSTEM.CONST>
0

>  <SCORE.SYSTEM.DIHEDRAL>
0

>  <SCORE.SYSTEM.SOLV>
0

>  <SCORE.SYSTEM.norm>
0

>  <SCORE.heavy>
22

>  <SCORE.norm>
-0.843851

>  <RMSD>
12.092

$$$$
2fcx_lig
 OpenBabel11021811433D
libRbt.so/2013.1/901 2013/11/27
 22 23  0  0  0  0  0  0  0  0999 V2000
   27.0593   -3.0428   11.6965 N   0  0  0  0  0  0  0  0  0  0  0  0
   26.0592    0.8660    8.9043 N   0  0  0  0  0  0  0  0  0  0  0  0
   29.4384   -0.5302    6.0490 N   0  0  0  0  0  0  0  0  0  0  0  0
   30.5588    0.1870   10.6286 O   0  0  0  0  0  0  0  0  0  0  0  0
   29.1691    0.0394   10.9324 C   0  0  2  0  0  0  0  0  0  0  0  0
   29.5055    4.7124    9.9051 N   0  0  0  0  0  0  0  0  0  0  0  0
   29.5901   -1.8318   12.3744 O   0  0  0  0  0  0  0  0  0  0  0  0
   28.8495   -1.4302   11.2158 C   0  0  1  0  0  0  0  0  0  0  0  0
   28.5251    2.0241    9.6764 O   0  0  0  0  0  0  0  0  0  0  0  0
   27.3530   -1.6194   11.4742 C   0  0  1  0  0  0  0  0  0  0  0  0
   30.0717    1.5712    7.9750 O   0  0  0  0  0  0  0  0  0  0  0  0
   26.5327   -1.1175   10.2810 C   0  0  0  0  0  0  0  0  0  0  0  0
   28.1340    3.4304    5.4314 O   0  0  0  0  0  0  0  0  0  0  0  0
   26.8349    0.3655   10.0480 C   0  0  1  0  0  0  0  0  0  0  0  0
   28.8546    5.5030    7.2245 O   0  0  0  0  0  0  0  0  0  0  0  0
   28.3245    0.6049    9.7840 C   0  0  2  0  0  0  0  0  0  0  0  0
   29.8074    2.3834    9.1338 C   0  0  1  0  0  0  0  0  0  0  0  0
   29.1380    1.7682    6.8942 C   0  0  2  0  0  0  0  0  0  0  0  0
   29.5147    0.8951    5.6953 C   0  0  0  0  0  0  0  0  0  0  0  0
   29.1280    3.2308    6.4413 C   0  0  2  0  0  0  0  0  0  0  0  0
   28.8024    4.1344    7.6317 C   0  0  1  0  0  0  0  0  0  0  0  0
   29.8185    3.8669    8.7452 C   0  0  1  0  0  0  0  0  0  0  0  0
  5  4  1  6  0  0  0
  5  8  1  0  0  0  0
  5 16  1  0  0  0  0
  8  7  1  1  0  0  0
  8 10  1  0  0  0  0
 10  1  1  6  0  0  0
 10 12  1  0  0  0  0
 11 18  1  0  0  0  0
 12 14  1  0  0  0  0
 14  2  1  6  0  0  0
 14 16  1  0  0  0  0
 16  9  1  1  0  0  0
 17  9  1  6  0  0  0
 17 11  1  0  0  0  0
 17 22  1  0  0  0  0
 18 19  1  6  0  0  0
 18 20  1  0  0  0  0
 19  3  1  0  0  0  0
 20 13  1  6  0  0  0
 20 21  1  0  0  0  0
 21 15  1  6  0  0  0
 21 22  1  0  0  0  0
 22  6  1  1  0  0  0
M  END
>  <CHROM.1>
72.87408913,46.03161875,62.69723077,28.70697710,1.20164086,8.99452732,2.06097322
1.25179156,1.97939927

>  <Name>
2fcx_lig

>  <RI>
224

>  <Rbt.Current_Directory>
/home/itssahil/PROJECTS/Mol_Feturizer/New_Systems/rnas/2fcx

>  <Rbt.Executable>
rbdock ($Id: //depot/dev/client3/rdock/2013.1/src/exe/rbdock.cxx#4 $)

>  <Rbt.Library>
libRbt.so (2013.1, Build901 2013/11/27)

>  <Rbt.Parameter_File>
/export/apps/rDock/src/rDock_2013.1_src/data/scripts/dock_solv.prm

>  <Rbt.Receptor>
prm/blind_docking_100.prm

>  <SCORE>
-18.4244

>  <SCORE.INTER>
-17.1112

>  <SCORE.INTER.CONST>
1

>  <SCORE.INTER.POLAR>
-2.29058

>  <SCORE.INTER.ROT>
3

>  <SCORE.INTER.SOLV>
15.3081

>  <SCORE.INTER.VDW>
-14.4749

>  <SCORE.INTER.norm>
-0.77778

>  <SCORE.INTRA>
-1.31323

>  <SCORE.INTRA.DIHEDRAL>
-3.14507

>  <SCORE.INTRA.DIHEDRAL.0>
4.88619

>  <SCORE.INTRA.POLAR>
0

>  <SCORE.INTRA.POLAR.0>
0

>  <SCORE.INTRA.REPUL>
0

>  <SCORE.INTRA.REPUL.0>
0

>  <SCORE.INTRA.SOLV>
-0.336812

>  <SCORE.INTRA.SOLV.lig_0>
-73.8187

>  <SCORE.INTRA.VDW>
0.427706

>  <SCORE.INTRA.VDW.0>
-1.32335

>  <SCORE.INTRA.norm>
-0.0596924

>  <SCORE.RESTR>
0

>  <SCORE.RESTR.CAVITY>
0

>  <SCORE.RESTR.norm>
0

>  <SCORE.SYSTEM>
0

>  <SCORE.SYSTEM.CONST>
0

>  <SCORE.SYSTEM.DIHEDRAL>
0

>  <SCORE.SYSTEM.SOLV>
0

>  <SCORE.SYSTEM.norm>
0

>  <SCORE.heavy>
22

>  <SCORE.norm>
-0.837472

>  <RMSD>
12.097

$$$$
2fcx_lig
 OpenBabel11021811433D
libRbt.so/2013.1/901 2013/11/27
 22 23  0  0  0  0  0  0  0  0999 V2000
   27.1767   -3.0398   11.9041 N   0  0  0  0  0  0  0  0  0  0  0  0
   26.0118    0.7117    8.9641 N   0  0  0  0  0  0  0  0  0  0  0  0
   30.7552    1.2919    5.1192 N   0  0  0  0  0  0  0  0  0  0  0  0
   30.5707    0.2122   10.5910 O   0  0  0  0  0  0  0  0  0  0  0  0
   29.1934    0.0486   10.9401 C   0  0  2  0  0  0  0  0  0  0  0  0
   29.4930    4.6194    9.9469 N   0  0  0  0  0  0  0  0  0  0  0  0
   29.6963   -1.7437   12.4543 O   0  0  0  0  0  0  0  0  0  0  0  0
   28.9156   -1.4128   11.2997 C   0  0  1  0  0  0  0  0  0  0  0  0
   28.4702    1.9581    9.6126 O   0  0  0  0  0  0  0  0  0  0  0  0
   27.4314   -1.6223   11.6084 C   0  0  1  0  0  0  0  0  0  0  0  0
   29.9862    1.5603    7.8704 O   0  0  0  0  0  0  0  0  0  0  0  0
   26.5679   -1.1946   10.4169 C   0  0  0  0  0  0  0  0  0  0  0  0
   28.0408    3.5588    5.4409 O   0  0  0  0  0  0  0  0  0  0  0  0
   26.8294    0.2821   10.1074 C   0  0  1  0  0  0  0  0  0  0  0  0
   28.8165    5.5385    7.3141 O   0  0  0  0  0  0  0  0  0  0  0  0
   28.3053    0.5414    9.7910 C   0  0  2  0  0  0  0  0  0  0  0  0
   29.7499    2.3233    9.0681 C   0  0  1  0  0  0  0  0  0  0  0  0
   29.0404    1.8187    6.8132 C   0  0  2  0  0  0  0  0  0  0  0  0
   29.3877    0.9951    5.5712 C   0  0  0  0  0  0  0  0  0  0  0  0
   29.0456    3.3001    6.4263 C   0  0  2  0  0  0  0  0  0  0  0  0
   28.7499    4.1539    7.6604 C   0  0  1  0  0  0  0  0  0  0  0  0
   29.7774    3.8224    8.7460 C   0  0  1  0  0  0  0  0  0  0  0  0
  5  4  1  6  0  0  0
  5  8  1  0  0  0  0
  5 16  1  0  0  0  0
  8  7  1  1  0  0  0
  8 10  1  0  0  0  0
 10  1  1  6  0  0  0
 10 12  1  0  0  0  0
 11 18  1  0  0  0  0
 12 14  1  0  0  0  0
 14  2  1  6  0  0  0
 14 16  1  0  0  0  0
 16  9  1  1  0  0  0
 17  9  1  6  0  0  0
 17 11  1  0  0  0  0
 17 22  1  0  0  0  0
 18 19  1  6  0  0  0
 18 20  1  0  0  0  0
 19  3  1  0  0  0  0
 20 13  1  6  0  0  0
 20 21  1  0  0  0  0
 21 15  1  6  0  0  0
 21 22  1  0  0  0  0
 22  6  1  1  0  0  0
M  END
>  <CHROM.1>
70.52028543,52.23020892,-57.47569015,28.74909051,1.28051787,8.97237440,2.16504711
1.28750654,1.81279635

>  <Name>
2fcx_lig

>  <RI>
2.51704e+07

>  <Rbt.Current_Directory>
/home/itssahil/PROJECTS/Mol_Feturizer/New_Systems/rnas/2fcx

>  <Rbt.Executable>
rbdock ($Id: //depot/dev/client3/rdock/2013.1/src/exe/rbdock.cxx#4 $)

>  <Rbt.Library>
libRbt.so (2013.1, Build901 2013/11/27)

>  <Rbt.Parameter_File>
/export/apps/rDock/src/rDock_2013.1_src/data/scripts/dock_solv.prm

>  <Rbt.Receptor>
prm/blind_docking_80.prm

>  <SCORE>
-17.3693

>  <SCORE.INTER>
-16.7313

>  <SCORE.INTER.CONST>
1

>  <SCORE.INTER.POLAR>
-2.28879

>  <SCORE.INTER.ROT>
3

>  <SCORE.INTER.SOLV>
17.3483

>  <SCORE.INTER.VDW>
-14.9076

>  <SCORE.INTER.norm>
-0.760511

>  <SCORE.INTRA>
-1.1337

>  <SCORE.INTRA.DIHEDRAL>
-4.0297

>  <SCORE.INTRA.DIHEDRAL.0>
4.88619

>  <SCORE.INTRA.POLAR>
0

>  <SCORE.INTRA.POLAR.0>
0

>  <SCORE.INTRA.REPUL>
0

>  <SCORE.INTRA.REPUL.0>
0

>  <SCORE.INTRA.SOLV>
0.557841

>  <SCORE.INTRA.SOLV.lig_0>
-73.8187

>  <SCORE.INTRA.VDW>
0.602235

>  <SCORE.INTRA.VDW.0>
-1.32335

>  <SCORE.INTRA.norm>
-0.0515316

>  <SCORE.RESTR>
0.495642

>  <SCORE.RESTR.CAVITY>
0.495642

>  <SCORE.RESTR.norm>
0.0225292

>  <SCORE.SYSTEM>
0

>  <SCORE.SYSTEM.CONST>
0

>  <SCORE.SYSTEM.DIHEDRAL>
0

>  <SCORE.SYSTEM.SOLV>
0

>  <SCORE.SYSTEM.norm>
0

>  <SCORE.heavy>
22

>  <SCORE.norm>
-0.789514

>  <RMSD>
12.098

$$$$
2fcx_lig
 OpenBabel11021811433D
libRbt.so/2013.1/901 2013/11/27
 22 23  0  0  0  0  0  0  0  0999 V2000
   27.0697   -3.0388   11.6975 N   0  0  0  0  0  0  0  0  0  0  0  0
   26.0849    0.8568    8.8816 N   0  0  0  0  0  0  0  0  0  0  0  0
   29.7604   -0.5799    6.1769 N   0  0  0  0  0  0  0  0  0  0  0  0
   30.5703    0.1965   10.6495 O   0  0  0  0  0  0  0  0  0  0  0  0
   29.1782    0.0463   10.9412 C   0  0  2  0  0  0  0  0  0  0  0  0
   29.4834    4.7260    9.9028 N   0  0  0  0  0  0  0  0  0  0  0  0
   29.5910   -1.8184   12.3940 O   0  0  0  0  0  0  0  0  0  0  0  0
   28.8600   -1.4232   11.2272 C   0  0  1  0  0  0  0  0  0  0  0  0
   28.5405    2.0245    9.6718 O   0  0  0  0  0  0  0  0  0  0  0  0
   27.3616   -1.6154   11.4726 C   0  0  1  0  0  0  0  0  0  0  0  0
   30.1804    1.5561    8.0646 O   0  0  0  0  0  0  0  0  0  0  0  0
   26.5511   -1.1202   10.2701 C   0  0  0  0  0  0  0  0  0  0  0  0
   28.3660    3.3500    5.3866 O   0  0  0  0  0  0  0  0  0  0  0  0
   26.8514    0.3627   10.0341 C   0  0  1  0  0  0  0  0  0  0  0  0
   28.9706    5.4616    7.1770 O   0  0  0  0  0  0  0  0  0  0  0  0
   28.3427    0.6051    9.7829 C   0  0  2  0  0  0  0  0  0  0  0  0
   29.8469    2.3865    9.1922 C   0  0  1  0  0  0  0  0  0  0  0  0
   29.3044    1.7244    6.9318 C   0  0  2  0  0  0  0  0  0  0  0  0
   29.7528    0.8335    5.7712 C   0  0  0  0  0  0  0  0  0  0  0  0
   29.3059    3.1784    6.4519 C   0  0  2  0  0  0  0  0  0  0  0  0
   28.9087    4.1001    7.6061 C   0  0  1  0  0  0  0  0  0  0  0  0
   29.8657    3.8627    8.7773 C   0  0  1  0  0  0  0  0  0  0  0  0
  5  4  1  6  0  0  0
  5  8  1  0  0  0  0
  5 16  1  0  0  0  0
  8  7  1  1  0  0  0
  8 10  1  0  0  0  0
 10  1  1  6  0  0  0
 10 12  1  0  0  0  0
 11 18  1  0  0  0  0
 12 14  1  0  0  0  0
 14  2  1  6  0  0  0
 14 16  1  0  0  0  0
 16  9  1  1  0  0  0
 17  9  1  6  0  0  0
 17 11  1  0  0  0  0
 17 22  1  0  0  0  0
 18 19  1  6  0  0  0
 18 20  1  0  0  0  0
 19  3  1  0  0  0  0
 20 13  1  6  0  0  0
 20 21  1  0  0  0  0
 21 15  1  6  0  0  0
 21 22  1  0  0  0  0
 22  6  1  1  0  0  0
M  END
>  <CHROM.1>
70.42678174,45.48250349,58.72699780,28.78389885,1.18612944,9.00876408,2.32372667
1.31976415,1.70911712

>  <Name>
2fcx_lig

>  <RI>
224

>  <Rbt.Current_Directory>
/home/itssahil/PROJECTS/Mol_Feturizer/New_Systems/rnas/2fcx

>  <Rbt.Executable>
rbdock ($Id: //depot/dev/client3/rdock/2013.1/src/exe/rbdock.cxx#4 $)

>  <Rbt.Library>
libRbt.so (2013.1, Build901 2013/11/27)

>  <Rbt.Parameter_File>
/export/apps/rDock/src/rDock_2013.1_src/data/scripts/dock_solv.prm

>  <Rbt.Receptor>
prm/blind_docking_100.prm

>  <SCORE>
-18.7303

>  <SCORE.INTER>
-17.5315

>  <SCORE.INTER.CONST>
1

>  <SCORE.INTER.POLAR>
-2.22782

>  <SCORE.INTER.ROT>
3

>  <SCORE.INTER.SOLV>
15.1851

>  <SCORE.INTER.VDW>
-14.9233

>  <SCORE.INTER.norm>
-0.796886

>  <SCORE.INTRA>
-1.20409

>  <SCORE.INTRA.DIHEDRAL>
-3.35713

>  <SCORE.INTRA.DIHEDRAL.0>
4.88619

>  <SCORE.INTRA.POLAR>
0

>  <SCORE.INTRA.POLAR.0>
0

>  <SCORE.INTRA.REPUL>
0

>  <SCORE.INTRA.REPUL.0>
0

>  <SCORE.INTRA.SOLV>
-0.395445

>  <SCORE.INTRA.SOLV.lig_0>
-73.8187

>  <SCORE.INTRA.VDW>
0.672196

>  <SCORE.INTRA.VDW.0>
-1.32335

>  <SCORE.INTRA.norm>
-0.0547314

>  <SCORE.RESTR>
0.00529333

>  <SCORE.RESTR.CAVITY>
0.00529333

>  <SCORE.RESTR.norm>
0.000240606

>  <SCORE.SYSTEM>
0

>  <SCORE.SYSTEM.CONST>
0

>  <SCORE.SYSTEM.DIHEDRAL>
0

>  <SCORE.SYSTEM.SOLV>
0

>  <SCORE.SYSTEM.norm>
0

>  <SCORE.heavy>
22

>  <SCORE.norm>
-0.851377

>  <RMSD>
12.099

$$$$
2fcx_lig
 OpenBabel11021811433D
libRbt.so/2013.1/901 2013/11/27
 22 23  0  0  0  0  0  0  0  0999 V2000
   27.0615   -3.0414   11.6787 N   0  0  0  0  0  0  0  0  0  0  0  0
   26.0575    0.8612    8.8792 N   0  0  0  0  0  0  0  0  0  0  0  0
   29.7617   -0.5616    6.1632 N   0  0  0  0  0  0  0  0  0  0  0  0
   30.5531    0.2004   10.6208 O   0  0  0  0  0  0  0  0  0  0  0  0
   29.1628    0.0479   10.9196 C   0  0  2  0  0  0  0  0  0  0  0  0
   29.4541    4.7307    9.9085 N   0  0  0  0  0  0  0  0  0  0  0  0
   29.5854   -1.8205   12.3648 O   0  0  0  0  0  0  0  0  0  0  0  0
   28.8476   -1.4227   11.2032 C   0  0  1  0  0  0  0  0  0  0  0  0
   28.5162    2.0291    9.6594 O   0  0  0  0  0  0  0  0  0  0  0  0
   27.3508   -1.6171   11.4562 C   0  0  1  0  0  0  0  0  0  0  0  0
   30.1702    1.5684    8.0645 O   0  0  0  0  0  0  0  0  0  0  0  0
   26.5332   -1.1193   10.2595 C   0  0  0  0  0  0  0  0  0  0  0  0
   28.3768    3.3703    5.3778 O   0  0  0  0  0  0  0  0  0  0  0  0
   26.8308    0.3646   10.0262 C   0  0  1  0  0  0  0  0  0  0  0  0
   28.9638    5.4759    7.1811 O   0  0  0  0  0  0  0  0  0  0  0  0
   28.3204    0.6092    9.7676 C   0  0  2  0  0  0  0  0  0  0  0  0
   29.8262    2.3943    9.1923 C   0  0  1  0  0  0  0  0  0  0  0  0
   29.3038    1.7400    6.9249 C   0  0  2  0  0  0  0  0  0  0  0  0
   29.7631    0.8539    5.7649 C   0  0  0  0  0  0  0  0  0  0  0  0
   29.3077    3.1958    6.4504 C   0  0  2  0  0  0  0  0  0  0  0  0
   28.8997    4.1128    7.6046 C   0  0  1  0  0  0  0  0  0  0  0  0
   29.8470    3.8721    8.7831 C   0  0  1  0  0  0  0  0  0  0  0  0
  5  4  1  6  0  0  0
  5  8  1  0  0  0  0
  5 16  1  0  0  0  0
  8  7  1  1  0  0  0
  8 10  1  0  0  0  0
 10  1  1  6  0  0  0
 10 12  1  0  0  0  0
 11 18  1  0  0  0  0
 12 14  1  0  0  0  0
 14  2  1  6  0  0  0
 14 16  1  0  0  0  0
 16  9  1  1  0  0  0
 17  9  1  6  0  0  0
 17 11  1  0  0  0  0
 17 22  1  0  0  0  0
 18 19  1  6  0  0  0
 18 20  1  0  0  0  0
 19  3  1  0  0  0  0
 20 13  1  6  0  0  0
 20 21  1  0  0  0  0
 21 15  1  6  0  0  0
 21 22  1  0  0  0  0
 22  6  1  1  0  0  0
M  END
>  <CHROM.1>
69.56843042,45.66517342,59.03908926,28.77253367,1.19386970,8.99907084,2.38250651
1.33173243,1.65259301

>  <Name>
2fcx_lig

>  <RI>
224

>  <Rbt.Current_Directory>
/home/itssahil/PROJECTS/Mol_Feturizer/New_Systems/rnas/2fcx

>  <Rbt.Executable>
rbdock ($Id: //depot/dev/client3/rdock/2013.1/src/exe/rbdock.cxx#4 $)

>  <Rbt.Library>
libRbt.so (2013.1, Build901 2013/11/27)

>  <Rbt.Parameter_File>
/export/apps/rDock/src/rDock_2013.1_src/data/scripts/dock_solv.prm

>  <Rbt.Receptor>
prm/blind_docking_100.prm

>  <SCORE>
-18.7014

>  <SCORE.INTER>
-17.4694

>  <SCORE.INTER.CONST>
1

>  <SCORE.INTER.POLAR>
-2.20666

>  <SCORE.INTER.ROT>
3

>  <SCORE.INTER.SOLV>
15.232

>  <SCORE.INTER.VDW>
-14.9681

>  <SCORE.INTER.norm>
-0.794063

>  <SCORE.INTRA>
-1.23204

>  <SCORE.INTRA.DIHEDRAL>
-3.46427

>  <SCORE.INTRA.DIHEDRAL.0>
4.88619

>  <SCORE.INTRA.POLAR>
0

>  <SCORE.INTRA.POLAR.0>
0

>  <SCORE.INTRA.REPUL>
0

>  <SCORE.INTRA.REPUL.0>
0

>  <SCORE.INTRA.SOLV>
-0.43477

>  <SCORE.INTRA.SOLV.lig_0>
-73.8187

>  <SCORE.INTRA.VDW>
0.717482

>  <SCORE.INTRA.VDW.0>
-1.32335

>  <SCORE.INTRA.norm>
-0.0560017

>  <SCORE.RESTR>
0

>  <SCORE.RESTR.CAVITY>
0

>  <SCORE.RESTR.norm>
0

>  <SCORE.SYSTEM>
0

>  <SCORE.SYSTEM.CONST>
0

>  <SCORE.SYSTEM.DIHEDRAL>
0

>  <SCORE.SYSTEM.SOLV>
0

>  <SCORE.SYSTEM.norm>
0

>  <SCORE.heavy>
22

>  <SCORE.norm>
-0.850065

>  <RMSD>
12.099

$$$$
2fcx_lig
 OpenBabel11021811433D
libRbt.so/2013.1/901 2013/11/27
 22 23  0  0  0  0  0  0  0  0999 V2000
   27.0533   -3.0523   11.6088 N   0  0  0  0  0  0  0  0  0  0  0  0
   26.0862    0.9016    8.8692 N   0  0  0  0  0  0  0  0  0  0  0  0
   29.7602   -0.5872    6.2010 N   0  0  0  0  0  0  0  0  0  0  0  0
   30.5690    0.1856   10.6215 O   0  0  0  0  0  0  0  0  0  0  0  0
   29.1764    0.0365   10.9110 C   0  0  2  0  0  0  0  0  0  0  0  0
   29.4766    4.7502    9.8871 N   0  0  0  0  0  0  0  0  0  0  0  0
   29.5808   -1.8579   12.3273 O   0  0  0  0  0  0  0  0  0  0  0  0
   28.8512   -1.4367   11.1688 C   0  0  1  0  0  0  0  0  0  0  0  0
   28.5477    2.0419    9.6805 O   0  0  0  0  0  0  0  0  0  0  0  0
   27.3520   -1.6263   11.4112 C   0  0  1  0  0  0  0  0  0  0  0  0
   30.1877    1.5685    8.0748 O   0  0  0  0  0  0  0  0  0  0  0  0
   26.5433   -1.1040   10.2190 C   0  0  0  0  0  0  0  0  0  0  0  0
   28.3599    3.3299    5.3844 O   0  0  0  0  0  0  0  0  0  0  0  0
   26.8508    0.3817   10.0116 C   0  0  1  0  0  0  0  0  0  0  0  0
   28.9560    5.4599    7.1559 O   0  0  0  0  0  0  0  0  0  0  0  0
   28.3431    0.6217    9.7643 C   0  0  2  0  0  0  0  0  0  0  0  0
   29.8515    2.4067    9.1958 C   0  0  1  0  0  0  0  0  0  0  0  0
   29.3092    1.7226    6.9419 C   0  0  2  0  0  0  0  0  0  0  0  0
   29.7606    0.8242    5.7883 C   0  0  0  0  0  0  0  0  0  0  0  0
   29.3023    3.1724    6.4497 C   0  0  2  0  0  0  0  0  0  0  0  0
   28.9019    4.1018    7.5966 C   0  0  1  0  0  0  0  0  0  0  0  0
   29.8619    3.8795    8.7683 C   0  0  1  0  0  0  0  0  0  0  0  0
  5  4  1  6  0  0  0
  5  8  1  0  0  0  0
  5 16  1  0  0  0  0
  8  7  1  1  0  0  0
  8 10  1  0  0  0  0
 10  1  1  6  0  0  0
 10 12  1  0  0  0  0
 11 18  1  0  0  0  0
 12 14  1  0  0  0  0
 14  2  1  6  0  0  0
 14 16  1  0  0  0  0
 16  9  1  1  0  0  0
 17  9  1  6  0  0  0
 17 11  1  0  0  0  0
 17 22  1  0  0  0  0
 18 19  1  6  0  0  0
 18 20  1  0  0  0  0
 19  3  1  0  0  0  0
 20 13  1  6  0  0  0
 20 21  1  0  0  0  0
 21 15  1  6  0  0  0
 21 22  1  0  0  0  0
 22  6  1  1  0  0  0
M  END
>  <CHROM.1>
70.95396422,43.64356222,59.43407777,28.78094440,1.18780012,8.98962018,2.34987025
1.32633545,1.69409585

>  <Name>
2fcx_lig

>  <RI>
2.63278e+07

>  <Rbt.Current_Directory>
/home/itssahil/PROJECTS/Mol_Feturizer/New_Systems/rnas/2fcx

>  <Rbt.Executable>
rbdock ($Id: //depot/dev/client3/rdock/2013.1/src/exe/rbdock.cxx#4 $)

>  <Rbt.Library>
libRbt.so (2013.1, Build901 2013/11/27)

>  <Rbt.Parameter_File>
/export/apps/rDock/src/rDock_2013.1_src/data/scripts/dock_solv.prm

>  <Rbt.Receptor>
prm/blind_docking_40.prm

>  <SCORE>
-18.7065

>  <SCORE.INTER>
-17.6828

>  <SCORE.INTER.CONST>
1

>  <SCORE.INTER.POLAR>
-2.23991

>  <SCORE.INTER.ROT>
3

>  <SCORE.INTER.SOLV>
15.0226

>  <SCORE.INTER.VDW>
-14.9297

>  <SCORE.INTER.norm>
-0.803761

>  <SCORE.INTRA>
-1.02611

>  <SCORE.INTRA.DIHEDRAL>
-3.059

>  <SCORE.INTRA.DIHEDRAL.0>
4.88619

>  <SCORE.INTRA.POLAR>
0

>  <SCORE.INTRA.POLAR.0>
0

>  <SCORE.INTRA.REPUL>
0

>  <SCORE.INTRA.REPUL.0>
0

>  <SCORE.INTRA.SOLV>
-0.327617

>  <SCORE.INTRA.SOLV.lig_0>
-73.8187

>  <SCORE.INTRA.VDW>
0.667194

>  <SCORE.INTRA.VDW.0>
-1.32335

>  <SCORE.INTRA.norm>
-0.0466415

>  <SCORE.RESTR>
0.00235389

>  <SCORE.RESTR.CAVITY>
0.00235389

>  <SCORE.RESTR.norm>
0.000106995

>  <SCORE.SYSTEM>
0

>  <SCORE.SYSTEM.CONST>
0

>  <SCORE.SYSTEM.DIHEDRAL>
0

>  <SCORE.SYSTEM.SOLV>
0

>  <SCORE.SYSTEM.norm>
0

>  <SCORE.heavy>
22

>  <SCORE.norm>
-0.850296

>  <RMSD>
12.101

$$$$
2fcx_lig
 OpenBabel11021811433D
libRbt.so/2013.1/901 2013/11/27
 22 23  0  0  0  0  0  0  0  0999 V2000
   27.0480   -3.0478   11.6659 N   0  0  0  0  0  0  0  0  0  0  0  0
   26.1149    0.8694    8.8624 N   0  0  0  0  0  0  0  0  0  0  0  0
   29.6799   -0.5983    6.1645 N   0  0  0  0  0  0  0  0  0  0  0  0
   30.5764    0.1758   10.6771 O   0  0  0  0  0  0  0  0  0  0  0  0
   29.1804    0.0309   10.9520 C   0  0  2  0  0  0  0  0  0  0  0  0
   29.5199    4.7192    9.9028 N   0  0  0  0  0  0  0  0  0  0  0  0
   29.5673   -1.8445   12.3982 O   0  0  0  0  0  0  0  0  0  0  0  0
   28.8516   -1.4386   11.2256 C   0  0  1  0  0  0  0  0  0  0  0  0
   28.5671    2.0198    9.6874 O   0  0  0  0  0  0  0  0  0  0  0  0
   27.3496   -1.6247   11.4528 C   0  0  1  0  0  0  0  0  0  0  0  0
   30.1871    1.5442    8.0623 O   0  0  0  0  0  0  0  0  0  0  0  0
   26.5553   -1.1182   10.2442 C   0  0  0  0  0  0  0  0  0  0  0  0
   28.3469    3.3383    5.4022 O   0  0  0  0  0  0  0  0  0  0  0  0
   26.8657    0.3645   10.0206 C   0  0  1  0  0  0  0  0  0  0  0  0
   28.9778    5.4515    7.1818 O   0  0  0  0  0  0  0  0  0  0  0  0
   28.3609    0.6009    9.7878 C   0  0  2  0  0  0  0  0  0  0  0  0
   29.8689    2.3775    9.1922 C   0  0  1  0  0  0  0  0  0  0  0  0
   29.2986    1.7130    6.9393 C   0  0  2  0  0  0  0  0  0  0  0  0
   29.7313    0.8188    5.7753 C   0  0  0  0  0  0  0  0  0  0  0  0
   29.2985    3.1661    6.4569 C   0  0  2  0  0  0  0  0  0  0  0  0
   28.9172    4.0909    7.6140 C   0  0  1  0  0  0  0  0  0  0  0  0
   29.8869    3.8529    8.7745 C   0  0  1  0  0  0  0  0  0  0  0  0
  5  4  1  6  0  0  0
  5  8  1  0  0  0  0
  5 16  1  0  0  0  0
  8  7  1  1  0  0  0
  8 10  1  0  0  0  0
 10  1  1  6  0  0  0
 10 12  1  0  0  0  0
 11 18  1  0  0  0  0
 12 14  1  0  0  0  0
 14  2  1  6  0  0  0
 14 16  1  0  0  0  0
 16  9  1  1  0  0  0
 17  9  1  6  0  0  0
 17 11  1  0  0  0  0
 17 22  1  0  0  0  0
 18 19  1  6  0  0  0
 18 20  1  0  0  0  0
 19  3  1  0  0  0  0
 20 13  1  6  0  0  0
 20 21  1  0  0  0  0
 21 15  1  6  0  0  0
 21 22  1  0  0  0  0
 22  6  1  1  0  0  0
M  END
>  <CHROM.1>
71.93663834,44.75928430,61.34729591,28.78393364,1.17624579,9.00821862,2.23607053
1.29205272,1.80294458

>  <Name>
2fcx_lig

>  <RI>
224

>  <Rbt.Current_Directory>
/home/itssahil/PROJECTS/Mol_Feturizer/New_Systems/rnas/2fcx

>  <Rbt.Executable>
rbdock ($Id: //depot/dev/client3/rdock/2013.1/src/exe/rbdock.cxx#4 $)

>  <Rbt.Library>
libRbt.so (2013.1, Build901 2013/11/27)

>  <Rbt.Parameter_File>
/export/apps/rDock/src/rDock_2013.1_src/data/scripts/dock_solv.prm

>  <Rbt.Receptor>
prm/blind_docking_100.prm

>  <SCORE>
-18.6429

>  <SCORE.INTER>
-17.4835

>  <SCORE.INTER.CONST>
1

>  <SCORE.INTER.POLAR>
-2.24796

>  <SCORE.INTER.ROT>
3

>  <SCORE.INTER.SOLV>
15.1468

>  <SCORE.INTER.VDW>
-14.8114

>  <SCORE.INTER.norm>
-0.794706

>  <SCORE.INTRA>
-1.15939

>  <SCORE.INTRA.DIHEDRAL>
-3.10491

>  <SCORE.INTRA.DIHEDRAL.0>
4.88619

>  <SCORE.INTRA.POLAR>
0

>  <SCORE.INTRA.POLAR.0>
0

>  <SCORE.INTRA.REPUL>
0

>  <SCORE.INTRA.REPUL.0>
0

>  <SCORE.INTRA.SOLV>
-0.333513

>  <SCORE.INTRA.SOLV.lig_0>
-73.8187

>  <SCORE.INTRA.VDW>
0.559824

>  <SCORE.INTRA.VDW.0>
-1.32335

>  <SCORE.INTRA.norm>
-0.0526995

>  <SCORE.RESTR>
0

>  <SCORE.RESTR.CAVITY>
0

>  <SCORE.RESTR.norm>
0

>  <SCORE.SYSTEM>
0

>  <SCORE.SYSTEM.CONST>
0

>  <SCORE.SYSTEM.DIHEDRAL>
0

>  <SCORE.SYSTEM.SOLV>
0

>  <SCORE.SYSTEM.norm>
0

>  <SCORE.heavy>
22

>  <SCORE.norm>
-0.847405

>  <RMSD>
12.106

$$$$
2fcx_lig
 OpenBabel11021811433D
libRbt.so/2013.1/901 2013/11/27
 22 23  0  0  0  0  0  0  0  0999 V2000
   27.1564    4.3363    1.1206 N   0  0  0  0  0  0  0  0  0  0  0  0
   25.9947    4.1257    5.8830 N   0  0  0  0  0  0  0  0  0  0  0  0
   28.7240    4.3498   10.2099 N   0  0  0  0  0  0  0  0  0  0  0  0
   29.2661    1.0355    4.0314 O   0  0  0  0  0  0  0  0  0  0  0  0
   28.0464    1.7302    3.7571 C   0  0  2  0  0  0  0  0  0  0  0  0
   27.1519   -1.0903    7.0369 N   0  0  0  0  0  0  0  0  0  0  0  0
   28.5114    1.8036    1.4041 O   0  0  0  0  0  0  0  0  0  0  0  0
   28.2237    2.6344    2.5351 C   0  0  1  0  0  0  0  0  0  0  0  0
   27.2771    1.6077    6.0646 O   0  0  0  0  0  0  0  0  0  0  0  0
   26.9501    3.4398    2.2675 C   0  0  1  0  0  0  0  0  0  0  0  0
   29.2028    2.0107    7.3377 O   0  0  0  0  0  0  0  0  0  0  0  0
   26.5726    4.2744    3.4961 C   0  0  0  0  0  0  0  0  0  0  0  0
   27.3049    2.3052   10.4988 O   0  0  0  0  0  0  0  0  0  0  0  0
   26.3552    3.3433    4.6922 C   0  0  1  0  0  0  0  0  0  0  0  0
   26.8374   -0.4022    9.8049 O   0  0  0  0  0  0  0  0  0  0  0  0
   27.6061    2.5147    4.9991 C   0  0  2  0  0  0  0  0  0  0  0  0
   28.4270    0.9960    6.6738 C   0  0  1  0  0  0  0  0  0  0  0  0
   28.5096    2.6669    8.4183 C   0  0  2  0  0  0  0  0  0  0  0  0
   29.4180    3.7007    9.0876 C   0  0  0  0  0  0  0  0  0  0  0  0
   28.0686    1.6543    9.4787 C   0  0  2  0  0  0  0  0  0  0  0  0
   27.1976    0.5776    8.8293 C   0  0  1  0  0  0  0  0  0  0  0  0
   27.9841   -0.0681    7.6855 C   0  0  1  0  0  0  0  0  0  0  0  0
  5  4  1  1  0  0  0
  5  8  1  0  0  0  0
  5 16  1  0  0  0  0
  8  7  1  6  0  0  0
  8 10  1  0  0  0  0
 10  1  1  6  0  0  0
 10 12  1  0  0  0  0
 11 18  1  0  0  0  0
 12 14  1  0  0  0  0
 14  2  1  1  0  0  0
 14 16  1  0  0  0  0
 16  9  1  1  0  0  0
 17  9  1  1  0  0  0
 17 11  1  0  0  0  0
 17 22  1  0  0  0  0
 18 19  1  1  0  0  0
 18 20  1  0  0  0  0
 19  3  1  0  0  0  0
 20 13  1  1  0  0  0
 20 21  1  0  0  0  0
 21 15  1  1  0  0  0
 21 22  1  0  0  0  0
 22  6  1  6  0  0  0
M  END
>  <CHROM.1>
73.73348616,65.68909507,-178.70486810,27.77554917,2.13860283,6.17185173,2.34971025
1.50420932,-2.15420555

>  <Name>
2fcx_lig

>  <RI>
224

>  <Rbt.Current_Directory>
/home/itssahil/PROJECTS/Mol_Feturizer/New_Systems/rnas/2fcx

>  <Rbt.Executable>
rbdock ($Id: //depot/dev/client3/rdock/2013.1/src/exe/rbdock.cxx#4 $)

>  <Rbt.Library>
libRbt.so (2013.1, Build901 2013/11/27)

>  <Rbt.Parameter_File>
/export/apps/rDock/src/rDock_2013.1_src/data/scripts/dock_solv.prm

>  <Rbt.Receptor>
prm/blind_docking_100.prm

>  <SCORE>
-8.24842

>  <SCORE.INTER>
-7.66417

>  <SCORE.INTER.CONST>
1

>  <SCORE.INTER.POLAR>
-1.10575

>  <SCORE.INTER.ROT>
3

>  <SCORE.INTER.SOLV>
12.625

>  <SCORE.INTER.VDW>
-11.232

>  <SCORE.INTER.norm>
-0.348371

>  <SCORE.INTRA>
-0.619422

>  <SCORE.INTRA.DIHEDRAL>
-3.8224

>  <SCORE.INTRA.DIHEDRAL.0>
4.88619

>  <SCORE.INTRA.POLAR>
0

>  <SCORE.INTRA.POLAR.0>
0

>  <SCORE.INTRA.REPUL>
0

>  <SCORE.INTRA.REPUL.0>
0

>  <SCORE.INTRA.SOLV>
0.69432

>  <SCORE.INTRA.SOLV.lig_0>
-73.8187

>  <SCORE.INTRA.VDW>
0.944619

>  <SCORE.INTRA.VDW.0>
-1.32335

>  <SCORE.INTRA.norm>
-0.0281555

>  <SCORE.RESTR>
0.0351756

>  <SCORE.RESTR.CAVITY>
0.0351756

>  <SCORE.RESTR.norm>
0.00159889

>  <SCORE.SYSTEM>
0

>  <SCORE.SYSTEM.CONST>
0

>  <SCORE.SYSTEM.DIHEDRAL>
0

>  <SCORE.SYSTEM.SOLV>
0

>  <SCORE.SYSTEM.norm>
0

>  <SCORE.heavy>
22

>  <SCORE.norm>
-0.374928

>  <RMSD>
12.107

$$$$
2fcx_lig
 OpenBabel11021811433D
libRbt.so/2013.1/901 2013/11/27
 22 23  0  0  0  0  0  0  0  0999 V2000
   27.3636    3.1362    1.6842 N   0  0  0  0  0  0  0  0  0  0  0  0
   28.8495    0.2374    5.3535 N   0  0  0  0  0  0  0  0  0  0  0  0
   26.2915   -3.0109    8.3421 N   0  0  0  0  0  0  0  0  0  0  0  0
   25.3172    3.5001    6.0999 O   0  0  0  0  0  0  0  0  0  0  0  0
   26.5448    3.2627    5.4056 C   0  0  2  0  0  0  0  0  0  0  0  0
   27.5876    3.1990    9.7446 N   0  0  0  0  0  0  0  0  0  0  0  0
   25.9178    4.7267    3.6106 O   0  0  0  0  0  0  0  0  0  0  0  0
   26.3228    3.3826    3.8960 C   0  0  1  0  0  0  0  0  0  0  0  0
   27.4695    1.8903    7.1923 O   0  0  0  0  0  0  0  0  0  0  0  0
   27.6096    3.0626    3.1319 C   0  0  1  0  0  0  0  0  0  0  0  0
   25.6168    0.6344    7.8865 O   0  0  0  0  0  0  0  0  0  0  0  0
   28.1111    1.6585    3.4857 C   0  0  0  0  0  0  0  0  0  0  0  0
   27.6724   -1.6477    9.9476 O   0  0  0  0  0  0  0  0  0  0  0  0
   28.3701    1.5791    4.9928 C   0  0  1  0  0  0  0  0  0  0  0  0
   28.0508    0.8222   11.2843 O   0  0  0  0  0  0  0  0  0  0  0  0
   27.1075    1.8921    5.8013 C   0  0  2  0  0  0  0  0  0  0  0  0
   26.3386    1.8648    8.0801 C   0  0  1  0  0  0  0  0  0  0  0  0
   26.3751   -0.5485    8.2100 C   0  0  2  0  0  0  0  0  0  0  0  0
   25.5215   -1.8028    8.0102 C   0  0  0  0  0  0  0  0  0  0  0  0
   26.8468   -0.5133    9.6662 C   0  0  2  0  0  0  0  0  0  0  0  0
   27.6632    0.7569    9.9106 C   0  0  1  0  0  0  0  0  0  0  0  0
   26.8088    1.9708    9.5360 C   0  0  1  0  0  0  0  0  0  0  0  0
  5  4  1  1  0  0  0
  5  8  1  0  0  0  0
  5 16  1  0  0  0  0
  8  7  1  1  0  0  0
  8 10  1  0  0  0  0
 10  1  1  6  0  0  0
 10 12  1  0  0  0  0
 11 18  1  0  0  0  0
 12 14  1  0  0  0  0
 14  2  1  6  0  0  0
 14 16  1  0  0  0  0
 16  9  1  1  0  0  0
 17  9  1  6  0  0  0
 17 11  1  0  0  0  0
 17 22  1  0  0  0  0
 18 19  1  1  0  0  0
 18 20  1  0  0  0  0
 19  3  1  0  0  0  0
 20 13  1  6  0  0  0
 20 21  1  0  0  0  0
 21 15  1  1  0  0  0
 21 22  1  0  0  0  0
 22  6  1  6  0  0  0
M  END
>  <CHROM.1>
73.08653540,63.56450579,-179.87997250,26.97646762,1.36727839,6.90687818,-1.63031835
-1.48995173,2.05093743

>  <Name>
2fcx_lig

>  <RI>
224

>  <Rbt.Current_Directory>
/home/itssahil/PROJECTS/Mol_Feturizer/New_Systems/rnas/2fcx

>  <Rbt.Executable>
rbdock ($Id: //depot/dev/client3/rdock/2013.1/src/exe/rbdock.cxx#4 $)

>  <Rbt.Library>
libRbt.so (2013.1, Build901 2013/11/27)

>  <Rbt.Parameter_File>
/export/apps/rDock/src/rDock_2013.1_src/data/scripts/dock_solv.prm

>  <Rbt.Receptor>
prm/blind_docking_100.prm

>  <SCORE>
-11.1269

>  <SCORE.INTER>
-10.3583

>  <SCORE.INTER.CONST>
1

>  <SCORE.INTER.POLAR>
-1.37826

>  <SCORE.INTER.ROT>
3

>  <SCORE.INTER.SOLV>
14.1606

>  <SCORE.INTER.VDW>
-12.6316

>  <SCORE.INTER.norm>
-0.470834

>  <SCORE.INTRA>
-0.768545

>  <SCORE.INTRA.DIHEDRAL>
-4.00249

>  <SCORE.INTRA.DIHEDRAL.0>
4.88619

>  <SCORE.INTRA.POLAR>
0

>  <SCORE.INTRA.POLAR.0>
0

>  <SCORE.INTRA.REPUL>
0

>  <SCORE.INTRA.REPUL.0>
0

>  <SCORE.INTRA.SOLV>
0.590929

>  <SCORE.INTRA.SOLV.lig_0>
-73.8187

>  <SCORE.INTRA.VDW>
0.937237

>  <SCORE.INTRA.VDW.0>
-1.32335

>  <SCORE.INTRA.norm>
-0.0349338

>  <SCORE.RESTR>
8.33983e-06

>  <SCORE.RESTR.CAVITY>
8.33983e-06

>  <SCORE.RESTR.norm>
3.79083e-07

>  <SCORE.SYSTEM>
0

>  <SCORE.SYSTEM.CONST>
0

>  <SCORE.SYSTEM.DIHEDRAL>
0

>  <SCORE.SYSTEM.SOLV>
0

>  <SCORE.SYSTEM.norm>
0

>  <SCORE.heavy>
22

>  <SCORE.norm>
-0.505767

>  <RMSD>
12.110

$$$$
2fcx_lig
 OpenBabel11021811433D
libRbt.so/2013.1/901 2013/11/27
 22 23  0  0  0  0  0  0  0  0999 V2000
   27.0445   -3.0582   11.6836 N   0  0  0  0  0  0  0  0  0  0  0  0
   26.0744    0.8539    8.8855 N   0  0  0  0  0  0  0  0  0  0  0  0
   29.8055   -0.6177    6.2194 N   0  0  0  0  0  0  0  0  0  0  0  0
   30.5577    0.1674   10.6485 O   0  0  0  0  0  0  0  0  0  0  0  0
   29.1652    0.0216   10.9401 C   0  0  2  0  0  0  0  0  0  0  0  0
   29.4751    4.7111    9.9040 N   0  0  0  0  0  0  0  0  0  0  0  0
   29.5710   -1.8512   12.3844 O   0  0  0  0  0  0  0  0  0  0  0  0
   28.8411   -1.4478   11.2197 C   0  0  1  0  0  0  0  0  0  0  0  0
   28.5350    2.0080    9.6798 O   0  0  0  0  0  0  0  0  0  0  0  0
   27.3421   -1.6351   11.4648 C   0  0  1  0  0  0  0  0  0  0  0  0
   30.1930    1.5295    8.0943 O   0  0  0  0  0  0  0  0  0  0  0  0
   26.5330   -1.1311   10.2649 C   0  0  0  0  0  0  0  0  0  0  0  0
   28.4089    3.3057    5.3845 O   0  0  0  0  0  0  0  0  0  0  0  0
   26.8393    0.3515   10.0355 C   0  0  1  0  0  0  0  0  0  0  0  0
   28.9932    5.4290    7.1678 O   0  0  0  0  0  0  0  0  0  0  0  0
   28.3315    0.5890    9.7847 C   0  0  2  0  0  0  0  0  0  0  0  0
   29.8468    2.3671    9.2127 C   0  0  1  0  0  0  0  0  0  0  0  0
   29.3299    1.6903    6.9506 C   0  0  2  0  0  0  0  0  0  0  0  0
   29.7915    0.7920    5.8010 C   0  0  0  0  0  0  0  0  0  0  0  0
   29.3367    3.1412    6.4614 C   0  0  2  0  0  0  0  0  0  0  0  0
   28.9265    4.0703    7.6050 C   0  0  1  0  0  0  0  0  0  0  0  0
   29.8702    3.8406    8.7885 C   0  0  1  0  0  0  0  0  0  0  0  0
  5  4  1  6  0  0  0
  5  8  1  0  0  0  0
  5 16  1  0  0  0  0
  8  7  1  1  0  0  0
  8 10  1  0  0  0  0
 10  1  1  6  0  0  0
 10 12  1  0  0  0  0
 11 18  1  0  0  0  0
 12 14  1  0  0  0  0
 14  2  1  6  0  0  0
 14 16  1  0  0  0  0
 16  9  1  1  0  0  0
 17  9  1  6  0  0  0
 17 11  1  0  0  0  0
 17 22  1  0  0  0  0
 18 19  1  6  0  0  0
 18 20  1  0  0  0  0
 19  3  1  0  0  0  0
 20 13  1  6  0  0  0
 20 21  1  0  0  0  0
 21 15  1  6  0  0  0
 21 22  1  0  0  0  0
 22  6  1  1  0  0  0
M  END
>  <CHROM.1>
69.89936773,44.87462143,58.24889255,28.78711763,1.16097154,9.01413153,2.42033057
1.33310623,1.61317936

>  <Name>
2fcx_lig

>  <RI>
224

>  <Rbt.Current_Directory>
/home/itssahil/PROJECTS/Mol_Feturizer/New_Systems/rnas/2fcx

>  <Rbt.Executable>
rbdock ($Id: //depot/dev/client3/rdock/2013.1/src/exe/rbdock.cxx#4 $)

>  <Rbt.Library>
libRbt.so (2013.1, Build901 2013/11/27)

>  <Rbt.Parameter_File>
/export/apps/rDock/src/rDock_2013.1_src/data/scripts/dock_solv.prm

>  <Rbt.Receptor>
prm/blind_docking_100.prm

>  <SCORE>
-18.6752

>  <SCORE.INTER>
-17.539

>  <SCORE.INTER.CONST>
1

>  <SCORE.INTER.POLAR>
-2.22646

>  <SCORE.INTER.ROT>
3

>  <SCORE.INTER.SOLV>
15.2615

>  <SCORE.INTER.VDW>
-14.9583

>  <SCORE.INTER.norm>
-0.797226

>  <SCORE.INTRA>
-1.1362

>  <SCORE.INTRA.DIHEDRAL>
-3.32186

>  <SCORE.INTRA.DIHEDRAL.0>
4.88619

>  <SCORE.INTRA.POLAR>
0

>  <SCORE.INTRA.POLAR.0>
0

>  <SCORE.INTRA.REPUL>
0

>  <SCORE.INTRA.REPUL.0>
0

>  <SCORE.INTRA.SOLV>
-0.395184

>  <SCORE.INTRA.SOLV.lig_0>
-73.8187

>  <SCORE.INTRA.VDW>
0.722324

>  <SCORE.INTRA.VDW.0>
-1.32335

>  <SCORE.INTRA.norm>
-0.0516454

>  <SCORE.RESTR>
0

>  <SCORE.RESTR.CAVITY>
0

>  <SCORE.RESTR.norm>
0

>  <SCORE.SYSTEM>
0

>  <SCORE.SYSTEM.CONST>
0

>  <SCORE.SYSTEM.DIHEDRAL>
0

>  <SCORE.SYSTEM.SOLV>
0

>  <SCORE.SYSTEM.norm>
0

>  <SCORE.heavy>
22

>  <SCORE.norm>
-0.848872

>  <RMSD>
12.112

$$$$
2fcx_lig
 OpenBabel11021811433D
libRbt.so/2013.1/901 2013/11/27
 22 23  0  0  0  0  0  0  0  0999 V2000
   27.0367   -3.0675   11.9008 N   0  0  0  0  0  0  0  0  0  0  0  0
   26.0012    0.7152    8.9522 N   0  0  0  0  0  0  0  0  0  0  0  0
   30.6689    1.1619    5.1653 N   0  0  0  0  0  0  0  0  0  0  0  0
   30.5118    0.1360   10.6840 O   0  0  0  0  0  0  0  0  0  0  0  0
   29.1242   -0.0072   10.9996 C   0  0  2  0  0  0  0  0  0  0  0  0
   29.5351    4.5642    9.9740 N   0  0  0  0  0  0  0  0  0  0  0  0
   29.5627   -1.8140   12.5166 O   0  0  0  0  0  0  0  0  0  0  0  0
   28.8150   -1.4656   11.3455 C   0  0  1  0  0  0  0  0  0  0  0  0
   28.4629    1.9194    9.6647 O   0  0  0  0  0  0  0  0  0  0  0  0
   27.3207   -1.6529   11.6180 C   0  0  1  0  0  0  0  0  0  0  0  0
   29.9376    1.4944    7.8937 O   0  0  0  0  0  0  0  0  0  0  0  0
   26.4925   -1.2062   10.4085 C   0  0  0  0  0  0  0  0  0  0  0  0
   27.9774    3.5207    5.4993 O   0  0  0  0  0  0  0  0  0  0  0  0
   26.7846    0.2676   10.1124 C   0  0  1  0  0  0  0  0  0  0  0  0
   28.8219    5.4904    7.3533 O   0  0  0  0  0  0  0  0  0  0  0  0
   28.2715    0.5047    9.8323 C   0  0  2  0  0  0  0  0  0  0  0  0
   29.7374    2.2630    9.0944 C   0  0  1  0  0  0  0  0  0  0  0  0
   28.9756    1.7667    6.8549 C   0  0  2  0  0  0  0  0  0  0  0  0
   29.2849    0.9356    5.6077 C   0  0  0  0  0  0  0  0  0  0  0  0
   28.9972    3.2472    6.4652 C   0  0  2  0  0  0  0  0  0  0  0  0
   28.7397    4.1075    7.7034 C   0  0  1  0  0  0  0  0  0  0  0  0
   29.7828    3.7610    8.7691 C   0  0  1  0  0  0  0  0  0  0  0  0
  5  4  1  6  0  0  0
  5  8  1  0  0  0  0
  5 16  1  0  0  0  0
  8  7  1  1  0  0  0
  8 10  1  0  0  0  0
 10  1  1  6  0  0  0
 10 12  1  0  0  0  0
 11 18  1  0  0  0  0
 12 14  1  0  0  0  0
 14  2  1  6  0  0  0
 14 16  1  0  0  0  0
 16  9  1  1  0  0  0
 17  9  1  6  0  0  0
 17 11  1  0  0  0  0
 17 22  1  0  0  0  0
 18 19  1  6  0  0  0
 18 20  1  0  0  0  0
 19  3  1  0  0  0  0
 20 13  1  6  0  0  0
 20 21  1  0  0  0  0
 21 15  1  6  0  0  0
 21 22  1  0  0  0  0
 22  6  1  1  0  0  0
M  END
>  <CHROM.1>
73.23894048,51.44479976,-54.81921628,28.69590210,1.23101515,9.00721390,2.07459483
1.22500911,1.91071223

>  <Name>
2fcx_lig

>  <RI>
224

>  <Rbt.Current_Directory>
/home/itssahil/PROJECTS/Mol_Feturizer/New_Systems/rnas/2fcx

>  <Rbt.Executable>
rbdock ($Id: //depot/dev/client3/rdock/2013.1/src/exe/rbdock.cxx#4 $)

>  <Rbt.Library>
libRbt.so (2013.1, Build901 2013/11/27)

>  <Rbt.Parameter_File>
/export/apps/rDock/src/rDock_2013.1_src/data/scripts/dock_solv.prm

>  <Rbt.Receptor>
prm/blind_docking_100.prm

>  <SCORE>
-17.6377

>  <SCORE.INTER>
-16.574

>  <SCORE.INTER.CONST>
1

>  <SCORE.INTER.POLAR>
-2.30427

>  <SCORE.INTER.ROT>
3

>  <SCORE.INTER.SOLV>
17.2724

>  <SCORE.INTER.VDW>
-14.7259

>  <SCORE.INTER.norm>
-0.753364

>  <SCORE.INTRA>
-1.06505

>  <SCORE.INTRA.DIHEDRAL>
-3.59816

>  <SCORE.INTRA.DIHEDRAL.0>
4.88619

>  <SCORE.INTRA.POLAR>
0

>  <SCORE.INTRA.POLAR.0>
0

>  <SCORE.INTRA.REPUL>
0

>  <SCORE.INTRA.REPUL.0>
0

>  <SCORE.INTRA.SOLV>
0.638404

>  <SCORE.INTRA.SOLV.lig_0>
-73.8187

>  <SCORE.INTRA.VDW>
0.414829

>  <SCORE.INTRA.VDW.0>
-1.32335

>  <SCORE.INTRA.norm>
-0.0484114

>  <SCORE.RESTR>
0.00132991

>  <SCORE.RESTR.CAVITY>
0.00132991

>  <SCORE.RESTR.norm>
6.04504e-05

>  <SCORE.SYSTEM>
0

>  <SCORE.SYSTEM.CONST>
0

>  <SCORE.SYSTEM.DIHEDRAL>
0

>  <SCORE.SYSTEM.SOLV>
0

>  <SCORE.SYSTEM.norm>
0

>  <SCORE.heavy>
22

>  <SCORE.norm>
-0.801715

>  <RMSD>
12.117

$$$$
2fcx_lig
 OpenBabel11021811433D
libRbt.so/2013.1/901 2013/11/27
 22 23  0  0  0  0  0  0  0  0999 V2000
   27.0182   -3.0672   11.6144 N   0  0  0  0  0  0  0  0  0  0  0  0
   26.1129    0.8789    8.8425 N   0  0  0  0  0  0  0  0  0  0  0  0
   29.5821   -0.5987    6.1252 N   0  0  0  0  0  0  0  0  0  0  0  0
   30.5640    0.1504   10.6693 O   0  0  0  0  0  0  0  0  0  0  0  0
   29.1663    0.0089   10.9371 C   0  0  2  0  0  0  0  0  0  0  0  0
   29.5259    4.7083    9.9082 N   0  0  0  0  0  0  0  0  0  0  0  0
   29.5394   -1.8810   12.3679 O   0  0  0  0  0  0  0  0  0  0  0  0
   28.8303   -1.4616   11.1961 C   0  0  1  0  0  0  0  0  0  0  0  0
   28.5664    2.0117    9.6880 O   0  0  0  0  0  0  0  0  0  0  0  0
   27.3266   -1.6435   11.4154 C   0  0  1  0  0  0  0  0  0  0  0  0
   30.1780    1.5382    8.0539 O   0  0  0  0  0  0  0  0  0  0  0  0
   26.5394   -1.1228   10.2081 C   0  0  0  0  0  0  0  0  0  0  0  0
   28.3294    3.3453    5.4084 O   0  0  0  0  0  0  0  0  0  0  0  0
   26.8569    0.3606    9.9992 C   0  0  1  0  0  0  0  0  0  0  0  0
   28.9730    5.4510    7.1922 O   0  0  0  0  0  0  0  0  0  0  0  0
   28.3540    0.5927    9.7747 C   0  0  2  0  0  0  0  0  0  0  0  0
   29.8667    2.3683    9.1881 C   0  0  1  0  0  0  0  0  0  0  0  0
   29.2847    1.7127    6.9356 C   0  0  2  0  0  0  0  0  0  0  0  0
   29.7102    0.8216    5.7665 C   0  0  0  0  0  0  0  0  0  0  0  0
   29.2855    3.1674    6.4581 C   0  0  2  0  0  0  0  0  0  0  0  0
   28.9114    4.0891    7.6200 C   0  0  1  0  0  0  0  0  0  0  0  0
   29.8860    3.8451    8.7753 C   0  0  1  0  0  0  0  0  0  0  0  0
  5  4  1  6  0  0  0
  5  8  1  0  0  0  0
  5 16  1  0  0  0  0
  8  7  1  1  0  0  0
  8 10  1  0  0  0  0
 10  1  1  6  0  0  0
 10 12  1  0  0  0  0
 11 18  1  0  0  0  0
 12 14  1  0  0  0  0
 14  2  1  6  0  0  0
 14 16  1  0  0  0  0
 16  9  1  1  0  0  0
 17  9  1  6  0  0  0
 17 11  1  0  0  0  0
 17 22  1  0  0  0  0
 18 19  1  6  0  0  0
 18 20  1  0  0  0  0
 19  3  1  0  0  0  0
 20 13  1  6  0  0  0
 20 21  1  0  0  0  0
 21 15  1  6  0  0  0
 21 22  1  0  0  0  0
 22  6  1  1  0  0  0
M  END
>  <CHROM.1>
72.55657041,44.30465565,64.67121212,28.76832605,1.16768058,8.99507875,2.19683564
1.27480474,1.85098977

>  <Name>
2fcx_lig

>  <RI>
224

>  <Rbt.Current_Directory>
/home/itssahil/PROJECTS/Mol_Feturizer/New_Systems/rnas/2fcx

>  <Rbt.Executable>
rbdock ($Id: //depot/dev/client3/rdock/2013.1/src/exe/rbdock.cxx#4 $)

>  <Rbt.Library>
libRbt.so (2013.1, Build901 2013/11/27)

>  <Rbt.Parameter_File>
/export/apps/rDock/src/rDock_2013.1_src/data/scripts/dock_solv.prm

>  <Rbt.Receptor>
prm/blind_docking_100.prm

>  <SCORE>
-18.5026

>  <SCORE.INTER>
-17.408

>  <SCORE.INTER.CONST>
1

>  <SCORE.INTER.POLAR>
-2.25219

>  <SCORE.INTER.ROT>
3

>  <SCORE.INTER.SOLV>
15.1761

>  <SCORE.INTER.VDW>
-14.7567

>  <SCORE.INTER.norm>
-0.791273

>  <SCORE.INTRA>
-1.09464

>  <SCORE.INTRA.DIHEDRAL>
-2.90295

>  <SCORE.INTRA.DIHEDRAL.0>
4.88619

>  <SCORE.INTRA.POLAR>
0

>  <SCORE.INTRA.POLAR.0>
0

>  <SCORE.INTRA.REPUL>
0

>  <SCORE.INTRA.REPUL.0>
0

>  <SCORE.INTRA.SOLV>
-0.305185

>  <SCORE.INTRA.SOLV.lig_0>
-73.8187

>  <SCORE.INTRA.VDW>
0.509425

>  <SCORE.INTRA.VDW.0>
-1.32335

>  <SCORE.INTRA.norm>
-0.0497566

>  <SCORE.RESTR>
0

>  <SCORE.RESTR.CAVITY>
0

>  <SCORE.RESTR.norm>
0

>  <SCORE.SYSTEM>
0

>  <SCORE.SYSTEM.CONST>
0

>  <SCORE.SYSTEM.DIHEDRAL>
0

>  <SCORE.SYSTEM.SOLV>
0

>  <SCORE.SYSTEM.norm>
0

>  <SCORE.heavy>
22

>  <SCORE.norm>
-0.841029

>  <RMSD>
12.119

$$$$
2fcx_lig
 OpenBabel11021811433D
libRbt.so/2013.1/901 2013/11/27
 22 23  0  0  0  0  0  0  0  0999 V2000
   27.0346   -3.0867   11.7140 N   0  0  0  0  0  0  0  0  0  0  0  0
   26.0409    0.7898    8.8751 N   0  0  0  0  0  0  0  0  0  0  0  0
   29.4225   -0.5397    6.0172 N   0  0  0  0  0  0  0  0  0  0  0  0
   30.5228    0.1609   10.6630 O   0  0  0  0  0  0  0  0  0  0  0  0
   29.1305    0.0051   10.9502 C   0  0  2  0  0  0  0  0  0  0  0  0
   29.4668    4.6587    9.9389 N   0  0  0  0  0  0  0  0  0  0  0  0
   29.5472   -1.8503   12.4138 O   0  0  0  0  0  0  0  0  0  0  0  0
   28.8185   -1.4645   11.2423 C   0  0  1  0  0  0  0  0  0  0  0  0
   28.4876    1.9738    9.6686 O   0  0  0  0  0  0  0  0  0  0  0  0
   27.3203   -1.6631   11.4831 C   0  0  1  0  0  0  0  0  0  0  0  0
   30.0527    1.5393    7.9794 O   0  0  0  0  0  0  0  0  0  0  0  0
   26.5117   -1.1778   10.2751 C   0  0  0  0  0  0  0  0  0  0  0  0
   28.1442    3.4287    5.4360 O   0  0  0  0  0  0  0  0  0  0  0  0
   26.8055    0.3053   10.0329 C   0  0  1  0  0  0  0  0  0  0  0  0
   28.8459    5.4803    7.2605 O   0  0  0  0  0  0  0  0  0  0  0  0
   28.2965    0.5540    9.7861 C   0  0  2  0  0  0  0  0  0  0  0  0
   29.7760    2.3384    9.1444 C   0  0  1  0  0  0  0  0  0  0  0  0
   29.1311    1.7493    6.8907 C   0  0  2  0  0  0  0  0  0  0  0  0
   29.5206    0.8897    5.6861 C   0  0  0  0  0  0  0  0  0  0  0  0
   29.1268    3.2169    6.4544 C   0  0  2  0  0  0  0  0  0  0  0  0
   28.7885    4.1071    7.6514 C   0  0  1  0  0  0  0  0  0  0  0  0
   29.7921    3.8262    8.7729 C   0  0  1  0  0  0  0  0  0  0  0  0
  5  4  1  6  0  0  0
  5  8  1  0  0  0  0
  5 16  1  0  0  0  0
  8  7  1  1  0  0  0
  8 10  1  0  0  0  0
 10  1  1  6  0  0  0
 10 12  1  0  0  0  0
 11 18  1  0  0  0  0
 12 14  1  0  0  0  0
 14  2  1  6  0  0  0
 14 16  1  0  0  0  0
 16  9  1  1  0  0  0
 17  9  1  6  0  0  0
 17 11  1  0  0  0  0
 17 22  1  0  0  0  0
 18 19  1  6  0  0  0
 18 20  1  0  0  0  0
 19  3  1  0  0  0  0
 20 13  1  6  0  0  0
 20 21  1  0  0  0  0
 21 15  1  6  0  0  0
 21 22  1  0  0  0  0
 22  6  1  1  0  0  0
M  END
>  <CHROM.1>
72.64423376,47.35711065,63.44910739,28.68493474,1.16711293,9.00365153,2.07178072
1.25071012,1.96733369

>  <Name>
2fcx_lig

>  <RI>
224

>  <Rbt.Current_Directory>
/home/itssahil/PROJECTS/Mol_Feturizer/New_Systems/rnas/2fcx

>  <Rbt.Executable>
rbdock ($Id: //depot/dev/client3/rdock/2013.1/src/exe/rbdock.cxx#4 $)

>  <Rbt.Library>
libRbt.so (2013.1, Build901 2013/11/27)

>  <Rbt.Parameter_File>
/export/apps/rDock/src/rDock_2013.1_src/data/scripts/dock_solv.prm

>  <Rbt.Receptor>
prm/blind_docking_100.prm

>  <SCORE>
-18.4271

>  <SCORE.INTER>
-17.0224

>  <SCORE.INTER.CONST>
1

>  <SCORE.INTER.POLAR>
-2.25273

>  <SCORE.INTER.ROT>
3

>  <SCORE.INTER.SOLV>
15.3684

>  <SCORE.INTER.VDW>
-14.562

>  <SCORE.INTER.norm>
-0.773745

>  <SCORE.INTRA>
-1.42252

>  <SCORE.INTRA.DIHEDRAL>
-3.31592

>  <SCORE.INTRA.DIHEDRAL.0>
4.88619

>  <SCORE.INTRA.POLAR>
0

>  <SCORE.INTRA.POLAR.0>
0

>  <SCORE.INTRA.REPUL>
0

>  <SCORE.INTRA.REPUL.0>
0

>  <SCORE.INTRA.SOLV>
-0.394738

>  <SCORE.INTRA.SOLV.lig_0>
-73.8187

>  <SCORE.INTRA.VDW>
0.432808

>  <SCORE.INTRA.VDW.0>
-1.32335

>  <SCORE.INTRA.norm>
-0.0646601

>  <SCORE.RESTR>
0.0178264

>  <SCORE.RESTR.CAVITY>
0.0178264

>  <SCORE.RESTR.norm>
0.000810293

>  <SCORE.SYSTEM>
0

>  <SCORE.SYSTEM.CONST>
0

>  <SCORE.SYSTEM.DIHEDRAL>
0

>  <SCORE.SYSTEM.SOLV>
0

>  <SCORE.SYSTEM.norm>
0

>  <SCORE.heavy>
22

>  <SCORE.norm>
-0.837595

>  <RMSD>
12.123

$$$$
2fcx_lig
 OpenBabel11021811433D
libRbt.so/2013.1/901 2013/11/27
 22 23  0  0  0  0  0  0  0  0999 V2000
   28.0015   -2.6415    8.8539 N   0  0  0  0  0  0  0  0  0  0  0  0
   29.8296    1.6318    7.2818 N   0  0  0  0  0  0  0  0  0  0  0  0
   28.5444    4.7294   10.0918 N   0  0  0  0  0  0  0  0  0  0  0  0
   25.0173    1.0447    7.7024 O   0  0  0  0  0  0  0  0  0  0  0  0
   26.2368    0.3853    7.3507 C   0  0  2  0  0  0  0  0  0  0  0  0
   25.6269    3.5967    4.3774 N   0  0  0  0  0  0  0  0  0  0  0  0
   25.3825   -1.7521    8.0288 O   0  0  0  0  0  0  0  0  0  0  0  0
   26.4540   -0.8291    8.2565 C   0  0  1  0  0  0  0  0  0  0  0  0
   27.2422    2.4025    6.4281 O   0  0  0  0  0  0  0  0  0  0  0  0
   27.7893   -1.5076    7.9423 C   0  0  1  0  0  0  0  0  0  0  0  0
   26.6666    4.1137    7.9221 O   0  0  0  0  0  0  0  0  0  0  0  0
   28.9470   -0.5155    8.0965 C   0  0  0  0  0  0  0  0  0  0  0  0
   28.9400    6.5567    6.3268 O   0  0  0  0  0  0  0  0  0  0  0  0
   28.7300    0.6660    7.1469 C   0  0  1  0  0  0  0  0  0  0  0  0
   27.0798    6.0677    4.2457 O   0  0  0  0  0  0  0  0  0  0  0  0
   27.4029    1.3786    7.4239 C   0  0  2  0  0  0  0  0  0  0  0  0
   26.2383    3.3763    6.7623 C   0  0  1  0  0  0  0  0  0  0  0  0
   27.8752    4.8739    7.7214 C   0  0  2  0  0  0  0  0  0  0  0  0
   28.2351    5.6518    8.9891 C   0  0  0  0  0  0  0  0  0  0  0  0
   27.7072    5.8735    6.5738 C   0  0  2  0  0  0  0  0  0  0  0  0
   27.2980    5.1298    5.3013 C   0  0  1  0  0  0  0  0  0  0  0  0
   26.0209    4.3347    5.5850 C   0  0  1  0  0  0  0  0  0  0  0  0
  5  4  1  1  0  0  0
  5  8  1  0  0  0  0
  5 16  1  0  0  0  0
  8  7  1  6  0  0  0
  8 10  1  0  0  0  0
 10  1  1  1  0  0  0
 10 12  1  0  0  0  0
 11 18  1  0  0  0  0
 12 14  1  0  0  0  0
 14  2  1  1  0  0  0
 14 16  1  0  0  0  0
 16  9  1  6  0  0  0
 17  9  1  6  0  0  0
 17 11  1  0  0  0  0
 17 22  1  0  0  0  0
 18 19  1  1  0  0  0
 18 20  1  0  0  0  0
 19  3  1  0  0  0  0
 20 13  1  6  0  0  0
 20 21  1  0  0  0  0
 21 15  1  6  0  0  0
 21 22  1  0  0  0  0
 22  6  1  6  0  0  0
M  END
>  <CHROM.1>
75.31481091,65.67580612,64.18620901,27.31188645,2.50672497,7.19036404,-1.65347138
-0.77612874,-0.31559384

>  <Name>
2fcx_lig

>  <RI>
2.63278e+07

>  <Rbt.Current_Directory>
/home/itssahil/PROJECTS/Mol_Feturizer/New_Systems/rnas/2fcx

>  <Rbt.Executable>
rbdock ($Id: //depot/dev/client3/rdock/2013.1/src/exe/rbdock.cxx#4 $)

>  <Rbt.Library>
libRbt.so (2013.1, Build901 2013/11/27)

>  <Rbt.Parameter_File>
/export/apps/rDock/src/rDock_2013.1_src/data/scripts/dock_solv.prm

>  <Rbt.Receptor>
prm/blind_docking_40.prm

>  <SCORE>
-11.7588

>  <SCORE.INTER>
-9.70471

>  <SCORE.INTER.CONST>
1

>  <SCORE.INTER.POLAR>
-1.89422

>  <SCORE.INTER.ROT>
3

>  <SCORE.INTER.SOLV>
13.08

>  <SCORE.INTER.VDW>
-10.1157

>  <SCORE.INTER.norm>
-0.441123

>  <SCORE.INTRA>
-2.05409

>  <SCORE.INTRA.DIHEDRAL>
-3.56238

>  <SCORE.INTRA.DIHEDRAL.0>
4.88619

>  <SCORE.INTRA.POLAR>
0

>  <SCORE.INTRA.POLAR.0>
0

>  <SCORE.INTRA.REPUL>
0

>  <SCORE.INTRA.REPUL.0>
0

>  <SCORE.INTRA.SOLV>
-0.517875

>  <SCORE.INTRA.SOLV.lig_0>
-73.8187

>  <SCORE.INTRA.VDW>
-0.0139671

>  <SCORE.INTRA.VDW.0>
-1.32335

>  <SCORE.INTRA.norm>
-0.0933679

>  <SCORE.RESTR>
0

>  <SCORE.RESTR.CAVITY>
0

>  <SCORE.RESTR.norm>
0

>  <SCORE.SYSTEM>
0

>  <SCORE.SYSTEM.CONST>
0

>  <SCORE.SYSTEM.DIHEDRAL>
0

>  <SCORE.SYSTEM.SOLV>
0

>  <SCORE.SYSTEM.norm>
0

>  <SCORE.heavy>
22

>  <SCORE.norm>
-0.534491

>  <RMSD>
12.124

$$$$
2fcx_lig
 OpenBabel11021811433D
libRbt.so/2013.1/901 2013/11/27
 22 23  0  0  0  0  0  0  0  0999 V2000
   27.0866   -3.0217   11.7051 N   0  0  0  0  0  0  0  0  0  0  0  0
   26.0869    0.8891    8.9157 N   0  0  0  0  0  0  0  0  0  0  0  0
   28.6731    0.8053    4.7243 N   0  0  0  0  0  0  0  0  0  0  0  0
   30.5922    0.1955   10.6191 O   0  0  0  0  0  0  0  0  0  0  0  0
   29.2034    0.0529   10.9296 C   0  0  2  0  0  0  0  0  0  0  0  0
   29.5190    4.7362    9.8931 N   0  0  0  0  0  0  0  0  0  0  0  0
   29.6247   -1.8191   12.3705 O   0  0  0  0  0  0  0  0  0  0  0  0
   28.8801   -1.4156   11.2152 C   0  0  1  0  0  0  0  0  0  0  0  0
   28.5604    2.0391    9.6756 O   0  0  0  0  0  0  0  0  0  0  0  0
   27.3841   -1.5995   11.4807 C   0  0  1  0  0  0  0  0  0  0  0  0
   30.1770    1.5623    8.0474 O   0  0  0  0  0  0  0  0  0  0  0  0
   26.5601   -1.0953   10.2912 C   0  0  0  0  0  0  0  0  0  0  0  0
   28.3365    3.3637    5.3924 O   0  0  0  0  0  0  0  0  0  0  0  0
   26.8663    0.3865   10.0559 C   0  0  1  0  0  0  0  0  0  0  0  0
   28.9744    5.4732    7.1738 O   0  0  0  0  0  0  0  0  0  0  0  0
   28.3554    0.6206    9.7849 C   0  0  2  0  0  0  0  0  0  0  0  0
   29.8621    2.3947    9.1789 C   0  0  1  0  0  0  0  0  0  0  0  0
   29.2872    1.7343    6.9260 C   0  0  2  0  0  0  0  0  0  0  0  0
   29.7163    0.8408    5.7601 C   0  0  0  0  0  0  0  0  0  0  0  0
   29.2893    3.1881    6.4454 C   0  0  2  0  0  0  0  0  0  0  0  0
   28.9116    4.1122    7.6043 C   0  0  1  0  0  0  0  0  0  0  0  0
   29.8826    3.8707    8.7631 C   0  0  1  0  0  0  0  0  0  0  0  0
  5  4  1  6  0  0  0
  5  8  1  0  0  0  0
  5 16  1  0  0  0  0
  8  7  1  1  0  0  0
  8 10  1  0  0  0  0
 10  1  1  6  0  0  0
 10 12  1  0  0  0  0
 11 18  1  0  0  0  0
 12 14  1  0  0  0  0
 14  2  1  6  0  0  0
 14 16  1  0  0  0  0
 16  9  1  1  0  0  0
 17  9  1  6  0  0  0
 17 11  1  0  0  0  0
 17 22  1  0  0  0  0
 18 19  1  6  0  0  0
 18 20  1  0  0  0  0
 19  3  1  0  0  0  0
 20 13  1  6  0  0  0
 20 21  1  0  0  0  0
 21 15  1  6  0  0  0
 21 22  1  0  0  0  0
 22  6  1  1  0  0  0
M  END
>  <CHROM.1>
70.43578971,45.24731505,168.61802151,28.74248660,1.26001716,8.94035640,1.93923839
1.13484699,2.05958726

>  <Name>
2fcx_lig

>  <RI>
224

>  <Rbt.Current_Directory>
/home/itssahil/PROJECTS/Mol_Feturizer/New_Systems/rnas/2fcx

>  <Rbt.Executable>
rbdock ($Id: //depot/dev/client3/rdock/2013.1/src/exe/rbdock.cxx#4 $)

>  <Rbt.Library>
libRbt.so (2013.1, Build901 2013/11/27)

>  <Rbt.Parameter_File>
/export/apps/rDock/src/rDock_2013.1_src/data/scripts/dock_solv.prm

>  <Rbt.Receptor>
prm/blind_docking_100.prm

>  <SCORE>
-17.8194

>  <SCORE.INTER>
-17.5559

>  <SCORE.INTER.CONST>
1

>  <SCORE.INTER.POLAR>
-2.26455

>  <SCORE.INTER.ROT>
3

>  <SCORE.INTER.SOLV>
15.6002

>  <SCORE.INTER.VDW>
-14.9555

>  <SCORE.INTER.norm>
-0.797995

>  <SCORE.INTRA>
-0.269572

>  <SCORE.INTRA.DIHEDRAL>
-2.87228

>  <SCORE.INTRA.DIHEDRAL.0>
4.88619

>  <SCORE.INTRA.POLAR>
0

>  <SCORE.INTRA.POLAR.0>
0

>  <SCORE.INTRA.REPUL>
0

>  <SCORE.INTRA.REPUL.0>
0

>  <SCORE.INTRA.SOLV>
0.34206

>  <SCORE.INTRA.SOLV.lig_0>
-73.8187

>  <SCORE.INTRA.VDW>
0.995537

>  <SCORE.INTRA.VDW.0>
-1.32335

>  <SCORE.INTRA.norm>
-0.0122533

>  <SCORE.RESTR>
0.00610939

>  <SCORE.RESTR.CAVITY>
0.00610939

>  <SCORE.RESTR.norm>
0.0002777

>  <SCORE.SYSTEM>
0

>  <SCORE.SYSTEM.CONST>
0

>  <SCORE.SYSTEM.DIHEDRAL>
0

>  <SCORE.SYSTEM.SOLV>
0

>  <SCORE.SYSTEM.norm>
0

>  <SCORE.heavy>
22

>  <SCORE.norm>
-0.809971

>  <RMSD>
12.127

$$$$
2fcx_lig
 OpenBabel11021811433D
libRbt.so/2013.1/901 2013/11/27
 22 23  0  0  0  0  0  0  0  0999 V2000
   27.0033   -3.0971   11.9332 N   0  0  0  0  0  0  0  0  0  0  0  0
   25.9666    0.6785    8.9761 N   0  0  0  0  0  0  0  0  0  0  0  0
   30.7043    1.0433    5.2593 N   0  0  0  0  0  0  0  0  0  0  0  0
   30.4783    0.1026   10.7062 O   0  0  0  0  0  0  0  0  0  0  0  0
   29.0909   -0.0395   11.0232 C   0  0  2  0  0  0  0  0  0  0  0  0
   29.4937    4.5322    9.9896 N   0  0  0  0  0  0  0  0  0  0  0  0
   29.5300   -1.8427   12.5443 O   0  0  0  0  0  0  0  0  0  0  0  0
   28.7815   -1.4971   11.3729 C   0  0  1  0  0  0  0  0  0  0  0  0
   28.4291    1.8839    9.6839 O   0  0  0  0  0  0  0  0  0  0  0  0
   27.2874   -1.6833   11.6468 C   0  0  1  0  0  0  0  0  0  0  0  0
   29.9223    1.4519    7.9302 O   0  0  0  0  0  0  0  0  0  0  0  0
   26.4585   -1.2394   10.4367 C   0  0  0  0  0  0  0  0  0  0  0  0
   27.9829    3.4617    5.5052 O   0  0  0  0  0  0  0  0  0  0  0  0
   26.7507    0.2335   10.1368 C   0  0  1  0  0  0  0  0  0  0  0  0
   28.8054    5.4429    7.3569 O   0  0  0  0  0  0  0  0  0  0  0  0
   28.2375    0.4697    9.8551 C   0  0  2  0  0  0  0  0  0  0  0  0
   29.7087    2.2266    9.1246 C   0  0  1  0  0  0  0  0  0  0  0  0
   28.9703    1.7168    6.8803 C   0  0  2  0  0  0  0  0  0  0  0  0
   29.2935    0.8796    5.6408 C   0  0  0  0  0  0  0  0  0  0  0  0
   28.9933    3.1953    6.4828 C   0  0  2  0  0  0  0  0  0  0  0  0
   28.7220    4.0618    7.7137 C   0  0  1  0  0  0  0  0  0  0  0  0
   29.7549    3.7229    8.7917 C   0  0  1  0  0  0  0  0  0  0  0  0
  5  4  1  6  0  0  0
  5  8  1  0  0  0  0
  5 16  1  0  0  0  0
  8  7  1  1  0  0  0
  8 10  1  0  0  0  0
 10  1  1  6  0  0  0
 10 12  1  0  0  0  0
 11 18  1  0  0  0  0
 12 14  1  0  0  0  0
 14  2  1  6  0  0  0
 14 16  1  0  0  0  0
 16  9  1  1  0  0  0
 17  9  1  6  0  0  0
 17 11  1  0  0  0  0
 17 22  1  0  0  0  0
 18 19  1  6  0  0  0
 18 20  1  0  0  0  0
 19  3  1  0  0  0  0
 20 13  1  6  0  0  0
 20 21  1  0  0  0  0
 21 15  1  6  0  0  0
 21 22  1  0  0  0  0
 22  6  1  1  0  0  0
M  END
>  <CHROM.1>
72.63902878,51.34334912,-51.39677077,28.67434098,1.18830332,9.03319764,2.13322574
1.25054729,1.84884745

>  <Name>
2fcx_lig

>  <RI>
2.63278e+07

>  <Rbt.Current_Directory>
/home/itssahil/PROJECTS/Mol_Feturizer/New_Systems/rnas/2fcx

>  <Rbt.Executable>
rbdock ($Id: //depot/dev/client3/rdock/2013.1/src/exe/rbdock.cxx#4 $)

>  <Rbt.Library>
libRbt.so (2013.1, Build901 2013/11/27)

>  <Rbt.Parameter_File>
/export/apps/rDock/src/rDock_2013.1_src/data/scripts/dock_solv.prm

>  <Rbt.Receptor>
prm/blind_docking_40.prm

>  <SCORE>
-17.5453

>  <SCORE.INTER>
-16.5251

>  <SCORE.INTER.CONST>
1

>  <SCORE.INTER.POLAR>
-2.30979

>  <SCORE.INTER.ROT>
3

>  <SCORE.INTER.SOLV>
17.2112

>  <SCORE.INTER.VDW>
-14.6545

>  <SCORE.INTER.norm>
-0.751141

>  <SCORE.INTRA>
-1.02026

>  <SCORE.INTRA.DIHEDRAL>
-3.49606

>  <SCORE.INTRA.DIHEDRAL.0>
4.88619

>  <SCORE.INTRA.POLAR>
0

>  <SCORE.INTRA.POLAR.0>
0

>  <SCORE.INTRA.REPUL>
0

>  <SCORE.INTRA.REPUL.0>
0

>  <SCORE.INTRA.SOLV>
0.56053

>  <SCORE.INTRA.SOLV.lig_0>
-73.8187

>  <SCORE.INTRA.VDW>
0.447508

>  <SCORE.INTRA.VDW.0>
-1.32335

>  <SCORE.INTRA.norm>
-0.0463754

>  <SCORE.RESTR>
7.74876e-05

>  <SCORE.RESTR.CAVITY>
7.74876e-05

>  <SCORE.RESTR.norm>
3.52216e-06

>  <SCORE.SYSTEM>
0

>  <SCORE.SYSTEM.CONST>
0

>  <SCORE.SYSTEM.DIHEDRAL>
0

>  <SCORE.SYSTEM.SOLV>
0

>  <SCORE.SYSTEM.norm>
0

>  <SCORE.heavy>
22

>  <SCORE.norm>
-0.797513

>  <RMSD>
12.131

$$$$
2fcx_lig
 OpenBabel11021811433D
libRbt.so/2013.1/901 2013/11/27
 22 23  0  0  0  0  0  0  0  0999 V2000
   27.0350   -3.0682   11.9031 N   0  0  0  0  0  0  0  0  0  0  0  0
   26.0109    0.6888    8.9181 N   0  0  0  0  0  0  0  0  0  0  0  0
   29.3037   -0.5395    5.9466 N   0  0  0  0  0  0  0  0  0  0  0  0
   30.5019    0.1545   10.7141 O   0  0  0  0  0  0  0  0  0  0  0  0
   29.1113    0.0026   11.0119 C   0  0  2  0  0  0  0  0  0  0  0  0
   29.4873    4.5762    9.9657 N   0  0  0  0  0  0  0  0  0  0  0  0
   29.5429   -1.7918   12.5455 O   0  0  0  0  0  0  0  0  0  0  0  0
   28.8084   -1.4562   11.3623 C   0  0  1  0  0  0  0  0  0  0  0  0
   28.4536    1.9161    9.6565 O   0  0  0  0  0  0  0  0  0  0  0  0
   27.3121   -1.6532   11.6157 C   0  0  1  0  0  0  0  0  0  0  0  0
   29.9846    1.4872    7.9350 O   0  0  0  0  0  0  0  0  0  0  0  0
   26.4970   -1.2200   10.3925 C   0  0  0  0  0  0  0  0  0  0  0  0
   28.0741    3.4633    5.4599 O   0  0  0  0  0  0  0  0  0  0  0  0
   26.7819    0.2541   10.0915 C   0  0  1  0  0  0  0  0  0  0  0  0
   28.8419    5.4638    7.3143 O   0  0  0  0  0  0  0  0  0  0  0  0
   28.2707    0.5010    9.8301 C   0  0  2  0  0  0  0  0  0  0  0  0
   29.7406    2.2673    9.1200 C   0  0  1  0  0  0  0  0  0  0  0  0
   29.0508    1.7365    6.8651 C   0  0  2  0  0  0  0  0  0  0  0  0
   29.4059    0.8945    5.6375 C   0  0  0  0  0  0  0  0  0  0  0  0
   29.0677    3.2125    6.4585 C   0  0  2  0  0  0  0  0  0  0  0  0
   28.7644    4.0842    7.6783 C   0  0  1  0  0  0  0  0  0  0  0  0
   29.7793    3.7619    8.7783 C   0  0  1  0  0  0  0  0  0  0  0  0
  5  4  1  6  0  0  0
  5  8  1  0  0  0  0
  5 16  1  0  0  0  0
  8  7  1  1  0  0  0
  8 10  1  0  0  0  0
 10  1  1  6  0  0  0
 10 12  1  0  0  0  0
 11 18  1  0  0  0  0
 12 14  1  0  0  0  0
 14  2  1  6  0  0  0
 14 16  1  0  0  0  0
 16  9  1  1  0  0  0
 17  9  1  6  0  0  0
 17 11  1  0  0  0  0
 17 22  1  0  0  0  0
 18 19  1  6  0  0  0
 18 20  1  0  0  0  0
 19  3  1  0  0  0  0
 20 13  1  6  0  0  0
 20 21  1  0  0  0  0
 21 15  1  6  0  0  0
 21 22  1  0  0  0  0
 22  6  1  1  0  0  0
M  END
>  <CHROM.1>
72.36982056,51.19845537,62.66488024,28.65039277,1.14485569,9.04271037,2.00778303
1.21907538,2.00830184

>  <Name>
2fcx_lig

>  <RI>
224

>  <Rbt.Current_Directory>
/home/itssahil/PROJECTS/Mol_Feturizer/New_Systems/rnas/2fcx

>  <Rbt.Executable>
rbdock ($Id: //depot/dev/client3/rdock/2013.1/src/exe/rbdock.cxx#4 $)

>  <Rbt.Library>
libRbt.so (2013.1, Build901 2013/11/27)

>  <Rbt.Parameter_File>
/export/apps/rDock/src/rDock_2013.1_src/data/scripts/dock_solv.prm

>  <Rbt.Receptor>
prm/blind_docking_100.prm

>  <SCORE>
-18.4924

>  <SCORE.INTER>
-16.7223

>  <SCORE.INTER.CONST>
1

>  <SCORE.INTER.POLAR>
-2.24538

>  <SCORE.INTER.ROT>
3

>  <SCORE.INTER.SOLV>
15.9679

>  <SCORE.INTER.VDW>
-14.5862

>  <SCORE.INTER.norm>
-0.760104

>  <SCORE.INTRA>
-1.77062

>  <SCORE.INTRA.DIHEDRAL>
-3.74891

>  <SCORE.INTRA.DIHEDRAL.0>
4.88619

>  <SCORE.INTRA.POLAR>
0

>  <SCORE.INTRA.POLAR.0>
0

>  <SCORE.INTRA.REPUL>
0

>  <SCORE.INTRA.REPUL.0>
0

>  <SCORE.INTRA.SOLV>
-0.514954

>  <SCORE.INTRA.SOLV.lig_0>
-73.8187

>  <SCORE.INTRA.VDW>
0.361314

>  <SCORE.INTRA.VDW.0>
-1.32335

>  <SCORE.INTRA.norm>
-0.0804827

>  <SCORE.RESTR>
0.000472669

>  <SCORE.RESTR.CAVITY>
0.000472669

>  <SCORE.RESTR.norm>
2.1485e-05

>  <SCORE.SYSTEM>
0

>  <SCORE.SYSTEM.CONST>
0

>  <SCORE.SYSTEM.DIHEDRAL>
0

>  <SCORE.SYSTEM.SOLV>
0

>  <SCORE.SYSTEM.norm>
0

>  <SCORE.heavy>
22

>  <SCORE.norm>
-0.840565

>  <RMSD>
12.132

$$$$
2fcx_lig
 OpenBabel11021811433D
libRbt.so/2013.1/901 2013/11/27
 22 23  0  0  0  0  0  0  0  0999 V2000
   27.0053   -3.0965   11.9293 N   0  0  0  0  0  0  0  0  0  0  0  0
   25.9697    0.6569    8.9436 N   0  0  0  0  0  0  0  0  0  0  0  0
   30.6608    1.1639    5.1702 N   0  0  0  0  0  0  0  0  0  0  0  0
   30.4692    0.1210   10.7176 O   0  0  0  0  0  0  0  0  0  0  0  0
   29.0800   -0.0291   11.0227 C   0  0  2  0  0  0  0  0  0  0  0  0
   29.4783    4.5305    9.9915 N   0  0  0  0  0  0  0  0  0  0  0  0
   29.5176   -1.8215   12.5570 O   0  0  0  0  0  0  0  0  0  0  0  0
   28.7775   -1.4870   11.3770 C   0  0  1  0  0  0  0  0  0  0  0  0
   28.4172    1.8829    9.6676 O   0  0  0  0  0  0  0  0  0  0  0  0
   27.2822   -1.6822   11.6383 C   0  0  1  0  0  0  0  0  0  0  0  0
   29.9114    1.4648    7.9114 O   0  0  0  0  0  0  0  0  0  0  0  0
   26.4615   -1.2501   10.4185 C   0  0  0  0  0  0  0  0  0  0  0  0
   27.9697    3.4884    5.4997 O   0  0  0  0  0  0  0  0  0  0  0  0
   26.7462    0.2233   10.1137 C   0  0  1  0  0  0  0  0  0  0  0  0
   28.7892    5.4581    7.3649 O   0  0  0  0  0  0  0  0  0  0  0  0
   28.2339    0.4683    9.8444 C   0  0  2  0  0  0  0  0  0  0  0  0
   29.6965    2.2311    9.1109 C   0  0  1  0  0  0  0  0  0  0  0  0
   28.9592    1.7355    6.8631 C   0  0  2  0  0  0  0  0  0  0  0  0
   29.2838    0.9071    5.6180 C   0  0  0  0  0  0  0  0  0  0  0  0
   28.9803    3.2166    6.4756 C   0  0  2  0  0  0  0  0  0  0  0  0
   28.7076    4.0745    7.7122 C   0  0  1  0  0  0  0  0  0  0  0  0
   29.7407    3.7297    8.7882 C   0  0  1  0  0  0  0  0  0  0  0  0
  5  4  1  6  0  0  0
  5  8  1  0  0  0  0
  5 16  1  0  0  0  0
  8  7  1  1  0  0  0
  8 10  1  0  0  0  0
 10  1  1  6  0  0  0
 10 12  1  0  0  0  0
 11 18  1  0  0  0  0
 12 14  1  0  0  0  0
 14  2  1  6  0  0  0
 14 16  1  0  0  0  0
 16  9  1  1  0  0  0
 17  9  1  6  0  0  0
 17 11  1  0  0  0  0
 17 22  1  0  0  0  0
 18 19  1  6  0  0  0
 18 20  1  0  0  0  0
 19  3  1  0  0  0  0
 20 13  1  6  0  0  0
 20 21  1  0  0  0  0
 21 15  1  6  0  0  0
 21 22  1  0  0  0  0
 22  6  1  1  0  0  0
M  END
>  <CHROM.1>
72.98484336,52.05546943,-56.24594382,28.66391792,1.20141243,9.02186980,2.08540949
1.22637135,1.89655531

>  <Name>
2fcx_lig

>  <RI>
2.63278e+07

>  <Rbt.Current_Directory>
/home/itssahil/PROJECTS/Mol_Feturizer/New_Systems/rnas/2fcx

>  <Rbt.Executable>
rbdock ($Id: //depot/dev/client3/rdock/2013.1/src/exe/rbdock.cxx#4 $)

>  <Rbt.Library>
libRbt.so (2013.1, Build901 2013/11/27)

>  <Rbt.Parameter_File>
/export/apps/rDock/src/rDock_2013.1_src/data/scripts/dock_solv.prm

>  <Rbt.Receptor>
prm/blind_docking_40.prm

>  <SCORE>
-17.6822

>  <SCORE.INTER>
-16.5632

>  <SCORE.INTER.CONST>
1

>  <SCORE.INTER.POLAR>
-2.28333

>  <SCORE.INTER.ROT>
3

>  <SCORE.INTER.SOLV>
17.3344

>  <SCORE.INTER.VDW>
-14.8091

>  <SCORE.INTER.norm>
-0.752873

>  <SCORE.INTRA>
-1.12017

>  <SCORE.INTRA.DIHEDRAL>
-3.72151

>  <SCORE.INTRA.DIHEDRAL.0>
4.88619

>  <SCORE.INTRA.POLAR>
0

>  <SCORE.INTRA.POLAR.0>
0

>  <SCORE.INTRA.REPUL>
0

>  <SCORE.INTRA.REPUL.0>
0

>  <SCORE.INTRA.SOLV>
0.634662

>  <SCORE.INTRA.SOLV.lig_0>
-73.8187

>  <SCORE.INTRA.VDW>
0.423258

>  <SCORE.INTRA.VDW.0>
-1.32335

>  <SCORE.INTRA.norm>
-0.0509168

>  <SCORE.RESTR>
0.00119202

>  <SCORE.RESTR.CAVITY>
0.00119202

>  <SCORE.RESTR.norm>
5.41828e-05

>  <SCORE.SYSTEM>
0

>  <SCORE.SYSTEM.CONST>
0

>  <SCORE.SYSTEM.DIHEDRAL>
0

>  <SCORE.SYSTEM.SOLV>
0

>  <SCORE.SYSTEM.norm>
0

>  <SCORE.heavy>
22

>  <SCORE.norm>
-0.803735

>  <RMSD>
12.133

$$$$
2fcx_lig
 OpenBabel11021811433D
libRbt.so/2013.1/901 2013/11/27
 22 23  0  0  0  0  0  0  0  0999 V2000
   27.0177   -3.1164   11.9479 N   0  0  0  0  0  0  0  0  0  0  0  0
   25.9616    0.6407    8.9742 N   0  0  0  0  0  0  0  0  0  0  0  0
   30.6734    1.1215    5.2035 N   0  0  0  0  0  0  0  0  0  0  0  0
   30.4762    0.0955   10.7066 O   0  0  0  0  0  0  0  0  0  0  0  0
   29.0895   -0.0522   11.0243 C   0  0  2  0  0  0  0  0  0  0  0  0
   29.4868    4.5046   10.0134 N   0  0  0  0  0  0  0  0  0  0  0  0
   29.5379   -1.8464   12.5533 O   0  0  0  0  0  0  0  0  0  0  0  0
   28.7876   -1.5098   11.3804 C   0  0  1  0  0  0  0  0  0  0  0  0
   28.4178    1.8618    9.6766 O   0  0  0  0  0  0  0  0  0  0  0  0
   27.2945   -1.7025   11.6552 C   0  0  1  0  0  0  0  0  0  0  0  0
   29.9103    1.4481    7.9179 O   0  0  0  0  0  0  0  0  0  0  0  0
   26.4633   -1.2681   10.4433 C   0  0  0  0  0  0  0  0  0  0  0  0
   27.9742    3.4896    5.5168 O   0  0  0  0  0  0  0  0  0  0  0  0
   26.7479    0.2050   10.1369 C   0  0  1  0  0  0  0  0  0  0  0  0
   28.8000    5.4474    7.3917 O   0  0  0  0  0  0  0  0  0  0  0  0
   28.2335    0.4474    9.8540 C   0  0  2  0  0  0  0  0  0  0  0  0
   29.6980    2.2090    9.1213 C   0  0  1  0  0  0  0  0  0  0  0  0
   28.9587    1.7269    6.8711 C   0  0  2  0  0  0  0  0  0  0  0  0
   29.2806    0.9038    5.6219 C   0  0  0  0  0  0  0  0  0  0  0  0
   28.9842    3.2099    6.4911 C   0  0  2  0  0  0  0  0  0  0  0  0
   28.7143    4.0624    7.7321 C   0  0  1  0  0  0  0  0  0  0  0  0
   29.7466    3.7090    8.8060 C   0  0  1  0  0  0  0  0  0  0  0  0
  5  4  1  6  0  0  0
  5  8  1  0  0  0  0
  5 16  1  0  0  0  0
  8  7  1  1  0  0  0
  8 10  1  0  0  0  0
 10  1  1  6  0  0  0
 10 12  1  0  0  0  0
 11 18  1  0  0  0  0
 12 14  1  0  0  0  0
 14  2  1  6  0  0  0
 14 16  1  0  0  0  0
 16  9  1  1  0  0  0
 17  9  1  6  0  0  0
 17 11  1  0  0  0  0
 17 22  1  0  0  0  0
 18 19  1  6  0  0  0
 18 20  1  0  0  0  0
 19  3  1  0  0  0  0
 20 13  1  6  0  0  0
 20 21  1  0  0  0  0
 21 15  1  6  0  0  0
 21 22  1  0  0  0  0
 22  6  1  1  0  0  0
M  END
>  <CHROM.1>
72.37338673,52.42509111,-54.19310952,28.66929738,1.18333493,9.03549284,2.09888279
1.23559244,1.88435604

>  <Name>
2fcx_lig

>  <RI>
2.63278e+07

>  <Rbt.Current_Directory>
/home/itssahil/PROJECTS/Mol_Feturizer/New_Systems/rnas/2fcx

>  <Rbt.Executable>
rbdock ($Id: //depot/dev/client3/rdock/2013.1/src/exe/rbdock.cxx#4 $)

>  <Rbt.Library>
libRbt.so (2013.1, Build901 2013/11/27)

>  <Rbt.Parameter_File>
/export/apps/rDock/src/rDock_2013.1_src/data/scripts/dock_solv.prm

>  <Rbt.Receptor>
prm/blind_docking_40.prm

>  <SCORE>
-17.7217

>  <SCORE.INTER>
-16.6112

>  <SCORE.INTER.CONST>
1

>  <SCORE.INTER.POLAR>
-2.32612

>  <SCORE.INTER.ROT>
3

>  <SCORE.INTER.SOLV>
17.3404

>  <SCORE.INTER.VDW>
-14.7006

>  <SCORE.INTER.norm>
-0.755056

>  <SCORE.INTRA>
-1.14211

>  <SCORE.INTRA.DIHEDRAL>
-3.75105

>  <SCORE.INTRA.DIHEDRAL.0>
4.88619

>  <SCORE.INTRA.POLAR>
0

>  <SCORE.INTRA.POLAR.0>
0

>  <SCORE.INTRA.REPUL>
0

>  <SCORE.INTRA.REPUL.0>
0

>  <SCORE.INTRA.SOLV>
0.5749

>  <SCORE.INTRA.SOLV.lig_0>
-73.8187

>  <SCORE.INTRA.VDW>
0.445962

>  <SCORE.INTRA.VDW.0>
-1.32335

>  <SCORE.INTRA.norm>
-0.0519143

>  <SCORE.RESTR>
0.0316957

>  <SCORE.RESTR.CAVITY>
0.0316957

>  <SCORE.RESTR.norm>
0.00144071

>  <SCORE.SYSTEM>
0

>  <SCORE.SYSTEM.CONST>
0

>  <SCORE.SYSTEM.DIHEDRAL>
0

>  <SCORE.SYSTEM.SOLV>
0

>  <SCORE.SYSTEM.norm>
0

>  <SCORE.heavy>
22

>  <SCORE.norm>
-0.80553

>  <RMSD>
12.138

$$$$
2fcx_lig
 OpenBabel11021811433D
libRbt.so/2013.1/901 2013/11/27
 22 23  0  0  0  0  0  0  0  0999 V2000
   27.0212   -3.0845   11.9077 N   0  0  0  0  0  0  0  0  0  0  0  0
   26.0088    0.6889    8.9393 N   0  0  0  0  0  0  0  0  0  0  0  0
   29.5264   -0.6313    6.0814 N   0  0  0  0  0  0  0  0  0  0  0  0
   30.5004    0.1274   10.7253 O   0  0  0  0  0  0  0  0  0  0  0  0
   29.1097   -0.0195   11.0249 C   0  0  2  0  0  0  0  0  0  0  0  0
   29.4558    4.5787    9.9643 N   0  0  0  0  0  0  0  0  0  0  0  0
   29.5359   -1.8219   12.5507 O   0  0  0  0  0  0  0  0  0  0  0  0
   28.8009   -1.4782   11.3701 C   0  0  1  0  0  0  0  0  0  0  0  0
   28.4581    1.9023    9.6782 O   0  0  0  0  0  0  0  0  0  0  0  0
   27.3041   -1.6696   11.6254 C   0  0  1  0  0  0  0  0  0  0  0  0
   30.0609    1.4472    8.0302 O   0  0  0  0  0  0  0  0  0  0  0  0
   26.4889   -1.2279   10.4052 C   0  0  0  0  0  0  0  0  0  0  0  0
   28.2348    3.3457    5.4336 O   0  0  0  0  0  0  0  0  0  0  0  0
   26.7798    0.2461   10.1096 C   0  0  1  0  0  0  0  0  0  0  0  0
   28.9101    5.3968    7.2685 O   0  0  0  0  0  0  0  0  0  0  0  0
   28.2692    0.4873    9.8465 C   0  0  2  0  0  0  0  0  0  0  0  0
   29.7627    2.2529    9.1853 C   0  0  1  0  0  0  0  0  0  0  0  0
   29.1688    1.6621    6.9181 C   0  0  2  0  0  0  0  0  0  0  0  0
   29.5803    0.7947    5.7264 C   0  0  0  0  0  0  0  0  0  0  0  0
   29.1895    3.1282    6.4771 C   0  0  2  0  0  0  0  0  0  0  0  0
   28.8299    4.0257    7.6623 C   0  0  1  0  0  0  0  0  0  0  0  0
   29.8023    3.7392    8.8096 C   0  0  1  0  0  0  0  0  0  0  0  0
  5  4  1  6  0  0  0
  5  8  1  0  0  0  0
  5 16  1  0  0  0  0
  8  7  1  1  0  0  0
  8 10  1  0  0  0  0
 10  1  1  6  0  0  0
 10 12  1  0  0  0  0
 11 18  1  0  0  0  0
 12 14  1  0  0  0  0
 14  2  1  6  0  0  0
 14 16  1  0  0  0  0
 16  9  1  1  0  0  0
 17  9  1  6  0  0  0
 17 11  1  0  0  0  0
 17 22  1  0  0  0  0
 18 19  1  6  0  0  0
 18 20  1  0  0  0  0
 19  3  1  0  0  0  0
 20 13  1  6  0  0  0
 20 21  1  0  0  0  0
 21 15  1  6  0  0  0
 21 22  1  0  0  0  0
 22  6  1  1  0  0  0
M  END
>  <CHROM.1>
70.29462868,49.72319983,60.54794361,28.69518034,1.10585924,9.06676291,2.15975865
1.27226731,1.85319154

>  <Name>
2fcx_lig

>  <RI>
224

>  <Rbt.Current_Directory>
/home/itssahil/PROJECTS/Mol_Feturizer/New_Systems/rnas/2fcx

>  <Rbt.Executable>
rbdock ($Id: //depot/dev/client3/rdock/2013.1/src/exe/rbdock.cxx#4 $)

>  <Rbt.Library>
libRbt.so (2013.1, Build901 2013/11/27)

>  <Rbt.Parameter_File>
/export/apps/rDock/src/rDock_2013.1_src/data/scripts/dock_solv.prm

>  <Rbt.Receptor>
prm/blind_docking_100.prm

>  <SCORE>
-18.4611

>  <SCORE.INTER>
-16.8263

>  <SCORE.INTER.CONST>
1

>  <SCORE.INTER.POLAR>
-2.22937

>  <SCORE.INTER.ROT>
3

>  <SCORE.INTER.SOLV>
15.9396

>  <SCORE.INTER.VDW>
-14.6995

>  <SCORE.INTER.norm>
-0.764832

>  <SCORE.INTRA>
-1.63844

>  <SCORE.INTRA.DIHEDRAL>
-3.85775

>  <SCORE.INTRA.DIHEDRAL.0>
4.88619

>  <SCORE.INTRA.POLAR>
0

>  <SCORE.INTRA.POLAR.0>
0

>  <SCORE.INTRA.REPUL>
0

>  <SCORE.INTRA.REPUL.0>
0

>  <SCORE.INTRA.SOLV>
-0.534759

>  <SCORE.INTRA.SOLV.lig_0>
-73.8187

>  <SCORE.INTRA.VDW>
0.557816

>  <SCORE.INTRA.VDW.0>
-1.32335

>  <SCORE.INTRA.norm>
-0.0744744

>  <SCORE.RESTR>
0.00362259

>  <SCORE.RESTR.CAVITY>
0.00362259

>  <SCORE.RESTR.norm>
0.000164663

>  <SCORE.SYSTEM>
0

>  <SCORE.SYSTEM.CONST>
0

>  <SCORE.SYSTEM.DIHEDRAL>
0

>  <SCORE.SYSTEM.SOLV>
0

>  <SCORE.SYSTEM.norm>
0

>  <SCORE.heavy>
22

>  <SCORE.norm>
-0.839142

>  <RMSD>
12.142

$$$$
2fcx_lig
 OpenBabel11021811433D
libRbt.so/2013.1/901 2013/11/27
 22 23  0  0  0  0  0  0  0  0999 V2000
   27.0210   -3.0718   11.8989 N   0  0  0  0  0  0  0  0  0  0  0  0
   26.0208    0.6966    8.9201 N   0  0  0  0  0  0  0  0  0  0  0  0
   29.8181   -0.6681    6.1957 N   0  0  0  0  0  0  0  0  0  0  0  0
   30.5072    0.1332   10.7186 O   0  0  0  0  0  0  0  0  0  0  0  0
   29.1155   -0.0113   11.0150 C   0  0  2  0  0  0  0  0  0  0  0  0
   29.4338    4.5966    9.9546 N   0  0  0  0  0  0  0  0  0  0  0  0
   29.5356   -1.8110   12.5456 O   0  0  0  0  0  0  0  0  0  0  0  0
   28.8040   -1.4689   11.3625 C   0  0  1  0  0  0  0  0  0  0  0  0
   28.4698    1.9085    9.6627 O   0  0  0  0  0  0  0  0  0  0  0  0
   27.3063   -1.6579   11.6143 C   0  0  1  0  0  0  0  0  0  0  0  0
   30.1570    1.4389    8.1056 O   0  0  0  0  0  0  0  0  0  0  0  0
   26.4948   -1.2177   10.3912 C   0  0  0  0  0  0  0  0  0  0  0  0
   28.4521    3.2814    5.3890 O   0  0  0  0  0  0  0  0  0  0  0  0
   26.7883    0.2553   10.0933 C   0  0  1  0  0  0  0  0  0  0  0  0
   29.0199    5.3670    7.2216 O   0  0  0  0  0  0  0  0  0  0  0  0
   28.2786    0.4941    9.8335 C   0  0  2  0  0  0  0  0  0  0  0  0
   29.7953    2.2609    9.2307 C   0  0  1  0  0  0  0  0  0  0  0  0
   29.3210    1.6291    6.9464 C   0  0  2  0  0  0  0  0  0  0  0  0
   29.7980    0.7456    5.7915 C   0  0  0  0  0  0  0  0  0  0  0  0
   29.3542    3.0880    6.4828 C   0  0  2  0  0  0  0  0  0  0  0  0
   28.9289    4.0018    7.6334 C   0  0  1  0  0  0  0  0  0  0  0  0
   29.8439    3.7412    8.8329 C   0  0  1  0  0  0  0  0  0  0  0  0
  5  4  1  6  0  0  0
  5  8  1  0  0  0  0
  5 16  1  0  0  0  0
  8  7  1  1  0  0  0
  8 10  1  0  0  0  0
 10  1  1  6  0  0  0
 10 12  1  0  0  0  0
 11 18  1  0  0  0  0
 12 14  1  0  0  0  0
 14  2  1  6  0  0  0
 14 16  1  0  0  0  0
 16  9  1  1  0  0  0
 17  9  1  6  0  0  0
 17 11  1  0  0  0  0
 17 22  1  0  0  0  0
 18 19  1  6  0  0  0
 18 20  1  0  0  0  0
 19  3  1  0  0  0  0
 20 13  1  6  0  0  0
 20 21  1  0  0  0  0
 21 15  1  6  0  0  0
 21 22  1  0  0  0  0
 22  6  1  1  0  0  0
M  END
>  <CHROM.1>
67.62027758,49.21657347,56.90346774,28.76254010,1.09831765,9.07095673,2.47171377
1.33187200,1.53393219

>  <Name>
2fcx_lig

>  <RI>
224

>  <Rbt.Current_Directory>
/home/itssahil/PROJECTS/Mol_Feturizer/New_Systems/rnas/2fcx

>  <Rbt.Executable>
rbdock ($Id: //depot/dev/client3/rdock/2013.1/src/exe/rbdock.cxx#4 $)

>  <Rbt.Library>
libRbt.so (2013.1, Build901 2013/11/27)

>  <Rbt.Parameter_File>
/export/apps/rDock/src/rDock_2013.1_src/data/scripts/dock_solv.prm

>  <Rbt.Receptor>
prm/blind_docking_100.prm

>  <SCORE>
-18.6578

>  <SCORE.INTER>
-17.1699

>  <SCORE.INTER.CONST>
1

>  <SCORE.INTER.POLAR>
-2.17019

>  <SCORE.INTER.ROT>
3

>  <SCORE.INTER.SOLV>
15.8616

>  <SCORE.INTER.VDW>
-15.0998

>  <SCORE.INTER.norm>
-0.780448

>  <SCORE.INTRA>
-1.48794

>  <SCORE.INTRA.DIHEDRAL>
-3.99995

>  <SCORE.INTRA.DIHEDRAL.0>
4.88619

>  <SCORE.INTRA.POLAR>
0

>  <SCORE.INTRA.POLAR.0>
0

>  <SCORE.INTRA.REPUL>
0

>  <SCORE.INTRA.REPUL.0>
0

>  <SCORE.INTRA.SOLV>
-0.594853

>  <SCORE.INTRA.SOLV.lig_0>
-73.8187

>  <SCORE.INTRA.VDW>
0.809468

>  <SCORE.INTRA.VDW.0>
-1.32335

>  <SCORE.INTRA.norm>
-0.0676334

>  <SCORE.RESTR>
0

>  <SCORE.RESTR.CAVITY>
0

>  <SCORE.RESTR.norm>
0

>  <SCORE.SYSTEM>
0

>  <SCORE.SYSTEM.CONST>
0

>  <SCORE.SYSTEM.DIHEDRAL>
0

>  <SCORE.SYSTEM.SOLV>
0

>  <SCORE.SYSTEM.norm>
0

>  <SCORE.heavy>
22

>  <SCORE.norm>
-0.848082

>  <RMSD>
12.143

$$$$
2fcx_lig
 OpenBabel11021811433D
libRbt.so/2013.1/901 2013/11/27
 22 23  0  0  0  0  0  0  0  0999 V2000
   27.0478   -3.0511   11.6713 N   0  0  0  0  0  0  0  0  0  0  0  0
   26.0912    0.8561    8.8618 N   0  0  0  0  0  0  0  0  0  0  0  0
   28.7220    0.7997    4.7181 N   0  0  0  0  0  0  0  0  0  0  0  0
   30.5612    0.1830   10.6633 O   0  0  0  0  0  0  0  0  0  0  0  0
   29.1666    0.0337   10.9432 C   0  0  2  0  0  0  0  0  0  0  0  0
   29.4861    4.7187    9.9047 N   0  0  0  0  0  0  0  0  0  0  0  0
   29.5651   -1.8369   12.3925 O   0  0  0  0  0  0  0  0  0  0  0  0
   28.8441   -1.4364   11.2213 C   0  0  1  0  0  0  0  0  0  0  0  0
   28.5420    2.0174    9.6760 O   0  0  0  0  0  0  0  0  0  0  0  0
   27.3435   -1.6274   11.4539 C   0  0  1  0  0  0  0  0  0  0  0  0
   30.1784    1.5483    8.0655 O   0  0  0  0  0  0  0  0  0  0  0  0
   26.5434   -1.1265   10.2467 C   0  0  0  0  0  0  0  0  0  0  0  0
   28.3590    3.3423    5.3910 O   0  0  0  0  0  0  0  0  0  0  0  0
   26.8477    0.3567   10.0187 C   0  0  1  0  0  0  0  0  0  0  0  0
   28.9680    5.4540    7.1798 O   0  0  0  0  0  0  0  0  0  0  0  0
   28.3413    0.5980    9.7804 C   0  0  2  0  0  0  0  0  0  0  0  0
   29.8475    2.3790    9.1937 C   0  0  1  0  0  0  0  0  0  0  0  0
   29.3001    1.7167    6.9345 C   0  0  2  0  0  0  0  0  0  0  0  0
   29.7460    0.8255    5.7732 C   0  0  0  0  0  0  0  0  0  0  0  0
   29.3010    3.1706    6.4544 C   0  0  2  0  0  0  0  0  0  0  0  0
   28.9065    4.0926    7.6092 C   0  0  1  0  0  0  0  0  0  0  0  0
   29.8659    3.8552    8.7785 C   0  0  1  0  0  0  0  0  0  0  0  0
  5  4  1  6  0  0  0
  5  8  1  0  0  0  0
  5 16  1  0  0  0  0
  8  7  1  1  0  0  0
  8 10  1  0  0  0  0
 10  1  1  6  0  0  0
 10 12  1  0  0  0  0
 11 18  1  0  0  0  0
 12 14  1  0  0  0  0
 14  2  1  6  0  0  0
 14 16  1  0  0  0  0
 16  9  1  1  0  0  0
 17  9  1  6  0  0  0
 17 11  1  0  0  0  0
 17 22  1  0  0  0  0
 18 19  1  6  0  0  0
 18 20  1  0  0  0  0
 19  3  1  0  0  0  0
 20 13  1  6  0  0  0
 20 21  1  0  0  0  0
 21 15  1  6  0  0  0
 21 22  1  0  0  0  0
 22  6  1  1  0  0  0
M  END
>  <CHROM.1>
71.10139072,45.13756896,169.36549533,28.73089053,1.23991943,8.93997605,1.95956609
1.14059411,2.04205764

>  <Name>
2fcx_lig

>  <RI>
224

>  <Rbt.Current_Directory>
/home/itssahil/PROJECTS/Mol_Feturizer/New_Systems/rnas/2fcx

>  <Rbt.Executable>
rbdock ($Id: //depot/dev/client3/rdock/2013.1/src/exe/rbdock.cxx#4 $)

>  <Rbt.Library>
libRbt.so (2013.1, Build901 2013/11/27)

>  <Rbt.Parameter_File>
/export/apps/rDock/src/rDock_2013.1_src/data/scripts/dock_solv.prm

>  <Rbt.Receptor>
prm/blind_docking_100.prm

>  <SCORE>
-17.886

>  <SCORE.INTER>
-17.625

>  <SCORE.INTER.CONST>
1

>  <SCORE.INTER.POLAR>
-2.22463

>  <SCORE.INTER.ROT>
3

>  <SCORE.INTER.SOLV>
15.4997

>  <SCORE.INTER.VDW>
-15.1011

>  <SCORE.INTER.norm>
-0.801135

>  <SCORE.INTRA>
-0.261029

>  <SCORE.INTRA.DIHEDRAL>
-2.84727

>  <SCORE.INTRA.DIHEDRAL.0>
4.88619

>  <SCORE.INTRA.POLAR>
0

>  <SCORE.INTRA.POLAR.0>
0

>  <SCORE.INTRA.REPUL>
0

>  <SCORE.INTRA.REPUL.0>
0

>  <SCORE.INTRA.SOLV>
0.386682

>  <SCORE.INTRA.SOLV.lig_0>
-73.8187

>  <SCORE.INTRA.VDW>
0.969265

>  <SCORE.INTRA.VDW.0>
-1.32335

>  <SCORE.INTRA.norm>
-0.0118649

>  <SCORE.RESTR>
0

>  <SCORE.RESTR.CAVITY>
0

>  <SCORE.RESTR.norm>
0

>  <SCORE.SYSTEM>
0

>  <SCORE.SYSTEM.CONST>
0

>  <SCORE.SYSTEM.DIHEDRAL>
0

>  <SCORE.SYSTEM.SOLV>
0

>  <SCORE.SYSTEM.norm>
0

>  <SCORE.heavy>
22

>  <SCORE.norm>
-0.813

>  <RMSD>
12.143

$$$$
2fcx_lig
 OpenBabel11021811433D
libRbt.so/2013.1/901 2013/11/27
 22 23  0  0  0  0  0  0  0  0999 V2000
   27.0551   -3.0454   11.7104 N   0  0  0  0  0  0  0  0  0  0  0  0
   26.0696    0.8505    8.8953 N   0  0  0  0  0  0  0  0  0  0  0  0
   28.7556    0.8113    4.7023 N   0  0  0  0  0  0  0  0  0  0  0  0
   30.5627    0.1739   10.6372 O   0  0  0  0  0  0  0  0  0  0  0  0
   29.1718    0.0298   10.9374 C   0  0  2  0  0  0  0  0  0  0  0  0
   29.4884    4.7062    9.9066 N   0  0  0  0  0  0  0  0  0  0  0  0
   29.5855   -1.8347   12.3902 O   0  0  0  0  0  0  0  0  0  0  0  0
   28.8492   -1.4379   11.2272 C   0  0  1  0  0  0  0  0  0  0  0  0
   28.5347    2.0090    9.6692 O   0  0  0  0  0  0  0  0  0  0  0  0
   27.3515   -1.6236   11.4818 C   0  0  1  0  0  0  0  0  0  0  0  0
   30.1808    1.5341    8.0704 O   0  0  0  0  0  0  0  0  0  0  0  0
   26.5359   -1.1266   10.2835 C   0  0  0  0  0  0  0  0  0  0  0  0
   28.3884    3.3374    5.3839 O   0  0  0  0  0  0  0  0  0  0  0  0
   26.8409    0.3547   10.0439 C   0  0  1  0  0  0  0  0  0  0  0  0
   28.9932    5.4454    7.1785 O   0  0  0  0  0  0  0  0  0  0  0  0
   28.3316    0.5906    9.7834 C   0  0  2  0  0  0  0  0  0  0  0  0
   29.8452    2.3654    9.1967 C   0  0  1  0  0  0  0  0  0  0  0  0
   29.3115    1.7069    6.9331 C   0  0  2  0  0  0  0  0  0  0  0  0
   29.7621    0.8146    5.7744 C   0  0  0  0  0  0  0  0  0  0  0  0
   29.3220    3.1611    6.4540 C   0  0  2  0  0  0  0  0  0  0  0  0
   28.9229    4.0840    7.6066 C   0  0  1  0  0  0  0  0  0  0  0  0
   29.8728    3.8418    8.7826 C   0  0  1  0  0  0  0  0  0  0  0  0
  5  4  1  6  0  0  0
  5  8  1  0  0  0  0
  5 16  1  0  0  0  0
  8  7  1  1  0  0  0
  8 10  1  0  0  0  0
 10  1  1  6  0  0  0
 10 12  1  0  0  0  0
 11 18  1  0  0  0  0
 12 14  1  0  0  0  0
 14  2  1  6  0  0  0
 14 16  1  0  0  0  0
 16  9  1  1  0  0  0
 17  9  1  6  0  0  0
 17 11  1  0  0  0  0
 17 22  1  0  0  0  0
 18 19  1  6  0  0  0
 18 20  1  0  0  0  0
 19  3  1  0  0  0  0
 20 13  1  6  0  0  0
 20 21  1  0  0  0  0
 21 15  1  6  0  0  0
 21 22  1  0  0  0  0
 22  6  1  1  0  0  0
M  END
>  <CHROM.1>
69.72050412,45.70410176,170.29628483,28.73827003,1.23440731,8.94483089,1.97336847
1.14667344,2.02394201

>  <Name>
2fcx_lig

>  <RI>
224

>  <Rbt.Current_Directory>
/home/itssahil/PROJECTS/Mol_Feturizer/New_Systems/rnas/2fcx

>  <Rbt.Executable>
rbdock ($Id: //depot/dev/client3/rdock/2013.1/src/exe/rbdock.cxx#4 $)

>  <Rbt.Library>
libRbt.so (2013.1, Build901 2013/11/27)

>  <Rbt.Parameter_File>
/export/apps/rDock/src/rDock_2013.1_src/data/scripts/dock_solv.prm

>  <Rbt.Receptor>
prm/blind_docking_100.prm

>  <SCORE>
-17.8463

>  <SCORE.INTER>
-17.5463

>  <SCORE.INTER.CONST>
1

>  <SCORE.INTER.POLAR>
-2.23172

>  <SCORE.INTER.ROT>
3

>  <SCORE.INTER.SOLV>
15.6728

>  <SCORE.INTER.VDW>
-15.0827

>  <SCORE.INTER.norm>
-0.797557

>  <SCORE.INTRA>
-0.300086

>  <SCORE.INTRA.DIHEDRAL>
-3.12156

>  <SCORE.INTRA.DIHEDRAL.0>
4.88619

>  <SCORE.INTRA.POLAR>
0

>  <SCORE.INTRA.POLAR.0>
0

>  <SCORE.INTRA.REPUL>
0

>  <SCORE.INTRA.REPUL.0>
0

>  <SCORE.INTRA.SOLV>
0.347404

>  <SCORE.INTRA.SOLV.lig_0>
-73.8187

>  <SCORE.INTRA.VDW>
1.08699

>  <SCORE.INTRA.VDW.0>
-1.32335

>  <SCORE.INTRA.norm>
-0.0136403

>  <SCORE.RESTR>
0

>  <SCORE.RESTR.CAVITY>
0

>  <SCORE.RESTR.norm>
0

>  <SCORE.SYSTEM>
0

>  <SCORE.SYSTEM.CONST>
0

>  <SCORE.SYSTEM.DIHEDRAL>
0

>  <SCORE.SYSTEM.SOLV>
0

>  <SCORE.SYSTEM.norm>
0

>  <SCORE.heavy>
22

>  <SCORE.norm>
-0.811197

>  <RMSD>
12.146

$$$$
2fcx_lig
 OpenBabel11021811433D
libRbt.so/2013.1/901 2013/11/27
 22 23  0  0  0  0  0  0  0  0999 V2000
   25.1059    4.8422    2.4589 N   0  0  0  0  0  0  0  0  0  0  0  0
   26.3946    3.4993    6.9987 N   0  0  0  0  0  0  0  0  0  0  0  0
   29.2732    4.2853   10.1421 N   0  0  0  0  0  0  0  0  0  0  0  0
   29.0810    2.1063    3.1879 O   0  0  0  0  0  0  0  0  0  0  0  0
   27.7443    2.3529    3.6325 C   0  0  2  0  0  0  0  0  0  0  0  0
   29.5738   -0.8962    6.1718 N   0  0  0  0  0  0  0  0  0  0  0  0
   27.0228    2.9492    1.4230 O   0  0  0  0  0  0  0  0  0  0  0  0
   27.0978    3.4375    2.7676 C   0  0  1  0  0  0  0  0  0  0  0  0
   28.1986    1.6096    5.9068 O   0  0  0  0  0  0  0  0  0  0  0  0
   25.6907    3.7659    3.2720 C   0  0  1  0  0  0  0  0  0  0  0  0
   30.0282    2.7473    6.8288 O   0  0  0  0  0  0  0  0  0  0  0  0
   25.7342    4.2105    4.7379 C   0  0  0  0  0  0  0  0  0  0  0  0
   29.2289    1.6689   10.2754 O   0  0  0  0  0  0  0  0  0  0  0  0
   26.3412    3.0908    5.5879 C   0  0  1  0  0  0  0  0  0  0  0  0
   29.8242   -0.8054    9.0290 O   0  0  0  0  0  0  0  0  0  0  0  0
   27.7533    2.7269    5.1198 C   0  0  2  0  0  0  0  0  0  0  0  0
   29.6232    1.5742    6.0994 C   0  0  1  0  0  0  0  0  0  0  0  0
   29.4717    2.8349    8.1560 C   0  0  2  0  0  0  0  0  0  0  0  0
   29.9822    4.0892    8.8688 C   0  0  0  0  0  0  0  0  0  0  0  0
   29.8606    1.6130    8.9927 C   0  0  2  0  0  0  0  0  0  0  0  0
   29.4066    0.3378    8.2804 C   0  0  1  0  0  0  0  0  0  0  0  0
   30.0187    0.3132    6.8774 C   0  0  1  0  0  0  0  0  0  0  0  0
  5  4  1  6  0  0  0
  5  8  1  0  0  0  0
  5 16  1  0  0  0  0
  8  7  1  6  0  0  0
  8 10  1  0  0  0  0
 10  1  1  6  0  0  0
 10 12  1  0  0  0  0
 11 18  1  0  0  0  0
 12 14  1  0  0  0  0
 14  2  1  1  0  0  0
 14 16  1  0  0  0  0
 16  9  1  1  0  0  0
 17  9  1  1  0  0  0
 17 11  1  0  0  0  0
 17 22  1  0  0  0  0
 18 19  1  1  0  0  0
 18 20  1  0  0  0  0
 19  3  1  0  0  0  0
 20 13  1  1  0  0  0
 20 21  1  0  0  0  0
 21 15  1  1  0  0  0
 21 22  1  0  0  0  0
 22  6  1  6  0  0  0
M  END
>  <CHROM.1>
89.50817852,62.56257232,171.89624932,28.31643319,2.35979519,6.13522707,2.48007476
0.95244637,-2.04623767

>  <Name>
2fcx_lig

>  <RI>
2.51704e+07

>  <Rbt.Current_Directory>
/home/itssahil/PROJECTS/Mol_Feturizer/New_Systems/rnas/2fcx

>  <Rbt.Executable>
rbdock ($Id: //depot/dev/client3/rdock/2013.1/src/exe/rbdock.cxx#4 $)

>  <Rbt.Library>
libRbt.so (2013.1, Build901 2013/11/27)

>  <Rbt.Parameter_File>
/export/apps/rDock/src/rDock_2013.1_src/data/scripts/dock_solv.prm

>  <Rbt.Receptor>
prm/blind_docking_80.prm

>  <SCORE>
-14.4765

>  <SCORE.INTER>
-14.5554

>  <SCORE.INTER.CONST>
1

>  <SCORE.INTER.POLAR>
-2.26261

>  <SCORE.INTER.ROT>
3

>  <SCORE.INTER.SOLV>
13.2758

>  <SCORE.INTER.VDW>
-12.1868

>  <SCORE.INTER.norm>
-0.661608

>  <SCORE.INTRA>
0.0733982

>  <SCORE.INTRA.DIHEDRAL>
-1.10049

>  <SCORE.INTRA.DIHEDRAL.0>
4.88619

>  <SCORE.INTRA.POLAR>
0

>  <SCORE.INTRA.POLAR.0>
0

>  <SCORE.INTRA.REPUL>
0

>  <SCORE.INTRA.REPUL.0>
0

>  <SCORE.INTRA.SOLV>
1.54609

>  <SCORE.INTRA.SOLV.lig_0>
-73.8187

>  <SCORE.INTRA.VDW>
-0.1494

>  <SCORE.INTRA.VDW.0>
-1.32335

>  <SCORE.INTRA.norm>
0.00333628

>  <SCORE.RESTR>
0.0054471

>  <SCORE.RESTR.CAVITY>
0.0054471

>  <SCORE.RESTR.norm>
0.000247596

>  <SCORE.SYSTEM>
0

>  <SCORE.SYSTEM.CONST>
0

>  <SCORE.SYSTEM.DIHEDRAL>
0

>  <SCORE.SYSTEM.SOLV>
0

>  <SCORE.SYSTEM.norm>
0

>  <SCORE.heavy>
22

>  <SCORE.norm>
-0.658024

>  <RMSD>
12.153

$$$$
2fcx_lig
 OpenBabel11021811433D
libRbt.so/2013.1/901 2013/11/27
 22 23  0  0  0  0  0  0  0  0999 V2000
   27.0359   -3.0663   11.6969 N   0  0  0  0  0  0  0  0  0  0  0  0
   26.0580    0.8195    8.8651 N   0  0  0  0  0  0  0  0  0  0  0  0
   28.7727    0.7835    4.7096 N   0  0  0  0  0  0  0  0  0  0  0  0
   30.5347    0.1744   10.6604 O   0  0  0  0  0  0  0  0  0  0  0  0
   29.1414    0.0217   10.9445 C   0  0  2  0  0  0  0  0  0  0  0  0
   29.4413    4.6980    9.9118 N   0  0  0  0  0  0  0  0  0  0  0  0
   29.5502   -1.8382   12.4045 O   0  0  0  0  0  0  0  0  0  0  0  0
   28.8250   -1.4478   11.2325 C   0  0  1  0  0  0  0  0  0  0  0  0
   28.5063    1.9950    9.6663 O   0  0  0  0  0  0  0  0  0  0  0  0
   27.3257   -1.6429   11.4699 C   0  0  1  0  0  0  0  0  0  0  0  0
   30.1701    1.5298    8.0830 O   0  0  0  0  0  0  0  0  0  0  0  0
   26.5209   -1.1527   10.2615 C   0  0  0  0  0  0  0  0  0  0  0  0
   28.3919    3.3216    5.3794 O   0  0  0  0  0  0  0  0  0  0  0  0
   26.8191    0.3302   10.0234 C   0  0  1  0  0  0  0  0  0  0  0  0
   28.9671    5.4336    7.1790 O   0  0  0  0  0  0  0  0  0  0  0  0
   28.3111    0.5755    9.7801 C   0  0  2  0  0  0  0  0  0  0  0  0
   29.8189    2.3593    9.2059 C   0  0  1  0  0  0  0  0  0  0  0  0
   29.3104    1.6971    6.9376 C   0  0  2  0  0  0  0  0  0  0  0  0
   29.7771    0.8072    5.7834 C   0  0  0  0  0  0  0  0  0  0  0  0
   29.3165    3.1512    6.4582 C   0  0  2  0  0  0  0  0  0  0  0  0
   28.9011    4.0719    7.6068 C   0  0  1  0  0  0  0  0  0  0  0  0
   29.8414    3.8357    8.7917 C   0  0  1  0  0  0  0  0  0  0  0  0
  5  4  1  6  0  0  0
  5  8  1  0  0  0  0
  5 16  1  0  0  0  0
  8  7  1  1  0  0  0
  8 10  1  0  0  0  0
 10  1  1  6  0  0  0
 10 12  1  0  0  0  0
 11 18  1  0  0  0  0
 12 14  1  0  0  0  0
 14  2  1  6  0  0  0
 14 16  1  0  0  0  0
 16  9  1  1  0  0  0
 17  9  1  6  0  0  0
 17 11  1  0  0  0  0
 17 22  1  0  0  0  0
 18 19  1  6  0  0  0
 18 20  1  0  0  0  0
 19  3  1  0  0  0  0
 20 13  1  6  0  0  0
 20 21  1  0  0  0  0
 21 15  1  6  0  0  0
 21 22  1  0  0  0  0
 22  6  1  1  0  0  0
M  END
>  <CHROM.1>
69.84588043,45.75276927,169.54574356,28.72030908,1.22131981,8.94522195,1.98678864
1.15497405,2.01136552

>  <Name>
2fcx_lig

>  <RI>
224

>  <Rbt.Current_Directory>
/home/itssahil/PROJECTS/Mol_Feturizer/New_Systems/rnas/2fcx

>  <Rbt.Executable>
rbdock ($Id: //depot/dev/client3/rdock/2013.1/src/exe/rbdock.cxx#4 $)

>  <Rbt.Library>
libRbt.so (2013.1, Build901 2013/11/27)

>  <Rbt.Parameter_File>
/export/apps/rDock/src/rDock_2013.1_src/data/scripts/dock_solv.prm

>  <Rbt.Receptor>
prm/blind_docking_100.prm

>  <SCORE>
-17.8186

>  <SCORE.INTER>
-17.5045

>  <SCORE.INTER.CONST>
1

>  <SCORE.INTER.POLAR>
-2.19421

>  <SCORE.INTER.ROT>
3

>  <SCORE.INTER.SOLV>
15.5974

>  <SCORE.INTER.VDW>
-15.1548

>  <SCORE.INTER.norm>
-0.79566

>  <SCORE.INTRA>
-0.314118

>  <SCORE.INTRA.DIHEDRAL>
-3.06375

>  <SCORE.INTRA.DIHEDRAL.0>
4.88619

>  <SCORE.INTRA.POLAR>
0

>  <SCORE.INTRA.POLAR.0>
0

>  <SCORE.INTRA.REPUL>
0

>  <SCORE.INTRA.REPUL.0>
0

>  <SCORE.INTRA.SOLV>
0.333642

>  <SCORE.INTRA.SOLV.lig_0>
-73.8187

>  <SCORE.INTRA.VDW>
1.05094

>  <SCORE.INTRA.VDW.0>
-1.32335

>  <SCORE.INTRA.norm>
-0.0142781

>  <SCORE.RESTR>
0

>  <SCORE.RESTR.CAVITY>
0

>  <SCORE.RESTR.norm>
0

>  <SCORE.SYSTEM>
0

>  <SCORE.SYSTEM.CONST>
0

>  <SCORE.SYSTEM.DIHEDRAL>
0

>  <SCORE.SYSTEM.SOLV>
0

>  <SCORE.SYSTEM.norm>
0

>  <SCORE.heavy>
22

>  <SCORE.norm>
-0.809938

>  <RMSD>
12.155

$$$$
2fcx_lig
 OpenBabel11021811433D
libRbt.so/2013.1/901 2013/11/27
 22 23  0  0  0  0  0  0  0  0999 V2000
   24.8698    4.5601    3.8957 N   0  0  0  0  0  0  0  0  0  0  0  0
   28.7550    1.7166    4.8413 N   0  0  0  0  0  0  0  0  0  0  0  0
   30.6890   -2.0349    6.1406 N   0  0  0  0  0  0  0  0  0  0  0  0
   24.7931    1.4476    7.6541 O   0  0  0  0  0  0  0  0  0  0  0  0
   25.6204    2.3407    6.9033 C   0  0  2  0  0  0  0  0  0  0  0  0
   26.2010    0.8856    9.8413 N   0  0  0  0  0  0  0  0  0  0  0  0
   23.7820    3.8192    6.4645 O   0  0  0  0  0  0  0  0  0  0  0  0
   24.7915    3.0339    5.8194 C   0  0  1  0  0  0  0  0  0  0  0  0
   27.6600    1.0974    7.3781 O   0  0  0  0  0  0  0  0  0  0  0  0
   25.6742    3.9414    4.9595 C   0  0  1  0  0  0  0  0  0  0  0  0
   28.2521   -1.1669    7.4974 O   0  0  0  0  0  0  0  0  0  0  0  0
   26.8148    3.1388    4.3247 C   0  0  0  0  0  0  0  0  0  0  0  0
   30.8210   -0.5742   10.0917 O   0  0  0  0  0  0  0  0  0  0  0  0
   27.6559    2.4945    5.4303 C   0  0  1  0  0  0  0  0  0  0  0  0
   28.4494    0.1476   11.4644 O   0  0  0  0  0  0  0  0  0  0  0  0
   26.8134    1.5746    6.3190 C   0  0  2  0  0  0  0  0  0  0  0  0
   27.2708   -0.1891    7.8891 C   0  0  1  0  0  0  0  0  0  0  0  0
   29.5668   -0.9293    8.0396 C   0  0  2  0  0  0  0  0  0  0  0  0
   30.5333   -2.0325    7.6029 C   0  0  0  0  0  0  0  0  0  0  0  0
   29.5290   -0.8996    9.5699 C   0  0  2  0  0  0  0  0  0  0  0  0
   28.5322    0.1620   10.0381 C   0  0  1  0  0  0  0  0  0  0  0  0
   27.1651   -0.1390    9.4182 C   0  0  1  0  0  0  0  0  0  0  0  0
  5  4  1  6  0  0  0
  5  8  1  0  0  0  0
  5 16  1  0  0  0  0
  8  7  1  1  0  0  0
  8 10  1  0  0  0  0
 10  1  1  6  0  0  0
 10 12  1  0  0  0  0
 11 18  1  0  0  0  0
 12 14  1  0  0  0  0
 14  2  1  6  0  0  0
 14 16  1  0  0  0  0
 16  9  1  1  0  0  0
 17  9  1  1  0  0  0
 17 11  1  0  0  0  0
 17 22  1  0  0  0  0
 18 19  1  1  0  0  0
 18 20  1  0  0  0  0
 19  3  1  0  0  0  0
 20 13  1  1  0  0  0
 20 21  1  0  0  0  0
 21 15  1  1  0  0  0
 21 22  1  0  0  0  0
 22  6  1  6  0  0  0
M  END
>  <CHROM.1>
87.59725498,109.97349717,62.80828000,27.46542503,1.00543135,7.38316494,-2.38407489
-0.60987541,1.88884382

>  <Name>
2fcx_lig

>  <RI>
2.63278e+07

>  <Rbt.Current_Directory>
/home/itssahil/PROJECTS/Mol_Feturizer/New_Systems/rnas/2fcx

>  <Rbt.Executable>
rbdock ($Id: //depot/dev/client3/rdock/2013.1/src/exe/rbdock.cxx#4 $)

>  <Rbt.Library>
libRbt.so (2013.1, Build901 2013/11/27)

>  <Rbt.Parameter_File>
/export/apps/rDock/src/rDock_2013.1_src/data/scripts/dock_solv.prm

>  <Rbt.Receptor>
prm/blind_docking_40.prm

>  <SCORE>
-10.1793

>  <SCORE.INTER>
-12.8058

>  <SCORE.INTER.CONST>
1

>  <SCORE.INTER.POLAR>
-2.367

>  <SCORE.INTER.ROT>
3

>  <SCORE.INTER.SOLV>
11.2074

>  <SCORE.INTER.VDW>
-9.98299

>  <SCORE.INTER.norm>
-0.582083

>  <SCORE.INTRA>
2.62651

>  <SCORE.INTRA.DIHEDRAL>
5.00976

>  <SCORE.INTRA.DIHEDRAL.0>
4.88619

>  <SCORE.INTRA.POLAR>
0

>  <SCORE.INTRA.POLAR.0>
0

>  <SCORE.INTRA.REPUL>
0

>  <SCORE.INTRA.REPUL.0>
0

>  <SCORE.INTRA.SOLV>
1.03776

>  <SCORE.INTRA.SOLV.lig_0>
-73.8187

>  <SCORE.INTRA.VDW>
-0.397247

>  <SCORE.INTRA.VDW.0>
-1.32335

>  <SCORE.INTRA.norm>
0.119387

>  <SCORE.RESTR>
0

>  <SCORE.RESTR.CAVITY>
0

>  <SCORE.RESTR.norm>
0

>  <SCORE.SYSTEM>
0

>  <SCORE.SYSTEM.CONST>
0

>  <SCORE.SYSTEM.DIHEDRAL>
0

>  <SCORE.SYSTEM.SOLV>
0

>  <SCORE.SYSTEM.norm>
0

>  <SCORE.heavy>
22

>  <SCORE.norm>
-0.462696

>  <RMSD>
12.171

$$$$
2fcx_lig
 OpenBabel11021811433D
libRbt.so/2013.1/901 2013/11/27
 22 23  0  0  0  0  0  0  0  0999 V2000
   27.0258   -3.0774   11.9055 N   0  0  0  0  0  0  0  0  0  0  0  0
   26.0326    0.6780    8.9080 N   0  0  0  0  0  0  0  0  0  0  0  0
   28.7460    0.7741    4.6870 N   0  0  0  0  0  0  0  0  0  0  0  0
   30.5076    0.1385   10.7418 O   0  0  0  0  0  0  0  0  0  0  0  0
   29.1144   -0.0109   11.0281 C   0  0  2  0  0  0  0  0  0  0  0  0
   29.4401    4.5883    9.9580 N   0  0  0  0  0  0  0  0  0  0  0  0
   29.5303   -1.8043   12.5673 O   0  0  0  0  0  0  0  0  0  0  0  0
   28.8062   -1.4687   11.3777 C   0  0  1  0  0  0  0  0  0  0  0  0
   28.4709    1.9021    9.6652 O   0  0  0  0  0  0  0  0  0  0  0  0
   27.3075   -1.6631   11.6188 C   0  0  1  0  0  0  0  0  0  0  0  0
   30.1350    1.4407    8.0811 O   0  0  0  0  0  0  0  0  0  0  0  0
   26.5034   -1.2300   10.3884 C   0  0  0  0  0  0  0  0  0  0  0  0
   28.3914    3.2989    5.3999 O   0  0  0  0  0  0  0  0  0  0  0  0
   26.7930    0.2433   10.0881 C   0  0  1  0  0  0  0  0  0  0  0  0
   28.9866    5.3740    7.2356 O   0  0  0  0  0  0  0  0  0  0  0  0
   28.2843    0.4875    9.8388 C   0  0  2  0  0  0  0  0  0  0  0  0
   29.7901    2.2566    9.2159 C   0  0  1  0  0  0  0  0  0  0  0  0
   29.2823    1.6377    6.9352 C   0  0  2  0  0  0  0  0  0  0  0  0
   29.7421    0.7605    5.7687 C   0  0  0  0  0  0  0  0  0  0  0  0
   29.3093    3.0991    6.4794 C   0  0  2  0  0  0  0  0  0  0  0  0
   28.9012    4.0066    7.6411 C   0  0  1  0  0  0  0  0  0  0  0  0
   29.8335    3.7390    8.8257 C   0  0  1  0  0  0  0  0  0  0  0  0
  5  4  1  6  0  0  0
  5  8  1  0  0  0  0
  5 16  1  0  0  0  0
  8  7  1  1  0  0  0
  8 10  1  0  0  0  0
 10  1  1  6  0  0  0
 10 12  1  0  0  0  0
 11 18  1  0  0  0  0
 12 14  1  0  0  0  0
 14  2  1  6  0  0  0
 14 16  1  0  0  0  0
 16  9  1  1  0  0  0
 17  9  1  6  0  0  0
 17 11  1  0  0  0  0
 17 22  1  0  0  0  0
 18 19  1  6  0  0  0
 18 20  1  0  0  0  0
 19  3  1  0  0  0  0
 20 13  1  6  0  0  0
 20 21  1  0  0  0  0
 21 15  1  6  0  0  0
 21 22  1  0  0  0  0
 22  6  1  1  0  0  0
M  END
>  <CHROM.1>
68.81660610,49.57971383,169.91672513,28.70207851,1.16350352,9.00422022,1.97299249
1.13769650,2.00113322

>  <Name>
2fcx_lig

>  <RI>
224

>  <Rbt.Current_Directory>
/home/itssahil/PROJECTS/Mol_Feturizer/New_Systems/rnas/2fcx

>  <Rbt.Executable>
rbdock ($Id: //depot/dev/client3/rdock/2013.1/src/exe/rbdock.cxx#4 $)

>  <Rbt.Library>
libRbt.so (2013.1, Build901 2013/11/27)

>  <Rbt.Parameter_File>
/export/apps/rDock/src/rDock_2013.1_src/data/scripts/dock_solv.prm

>  <Rbt.Receptor>
prm/blind_docking_100.prm

>  <SCORE>
-17.8513

>  <SCORE.INTER>
-17.1979

>  <SCORE.INTER.CONST>
1

>  <SCORE.INTER.POLAR>
-2.17489

>  <SCORE.INTER.ROT>
3

>  <SCORE.INTER.SOLV>
16.1419

>  <SCORE.INTER.VDW>
-15.1963

>  <SCORE.INTER.norm>
-0.781724

>  <SCORE.INTRA>
-0.654291

>  <SCORE.INTRA.DIHEDRAL>
-3.6144

>  <SCORE.INTRA.DIHEDRAL.0>
4.88619

>  <SCORE.INTRA.POLAR>
0

>  <SCORE.INTRA.POLAR.0>
0

>  <SCORE.INTRA.REPUL>
0

>  <SCORE.INTRA.REPUL.0>
0

>  <SCORE.INTRA.SOLV>
0.241758

>  <SCORE.INTRA.SOLV.lig_0>
-73.8187

>  <SCORE.INTRA.VDW>
1.03203

>  <SCORE.INTRA.VDW.0>
-1.32335

>  <SCORE.INTRA.norm>
-0.0297405

>  <SCORE.RESTR>
0.00087432

>  <SCORE.RESTR.CAVITY>
0.00087432

>  <SCORE.RESTR.norm>
3.97418e-05

>  <SCORE.SYSTEM>
0

>  <SCORE.SYSTEM.CONST>
0

>  <SCORE.SYSTEM.DIHEDRAL>
0

>  <SCORE.SYSTEM.SOLV>
0

>  <SCORE.SYSTEM.norm>
0

>  <SCORE.heavy>
22

>  <SCORE.norm>
-0.811425

>  <RMSD>
12.179

$$$$
2fcx_lig
 OpenBabel11021811433D
libRbt.so/2013.1/901 2013/11/27
 22 23  0  0  0  0  0  0  0  0999 V2000
   27.0343   -3.0718   11.8996 N   0  0  0  0  0  0  0  0  0  0  0  0
   26.0220    0.7069    8.9379 N   0  0  0  0  0  0  0  0  0  0  0  0
   28.6342    0.8291    4.6639 N   0  0  0  0  0  0  0  0  0  0  0  0
   30.5284    0.1075   10.6739 O   0  0  0  0  0  0  0  0  0  0  0  0
   29.1398   -0.0266   10.9894 C   0  0  2  0  0  0  0  0  0  0  0  0
   29.5102    4.5625    9.9760 N   0  0  0  0  0  0  0  0  0  0  0  0
   29.5672   -1.8308   12.5126 O   0  0  0  0  0  0  0  0  0  0  0  0
   28.8220   -1.4821   11.3399 C   0  0  1  0  0  0  0  0  0  0  0  0
   28.4903    1.8993    9.6476 O   0  0  0  0  0  0  0  0  0  0  0  0
   27.3265   -1.6598   11.6123 C   0  0  1  0  0  0  0  0  0  0  0  0
   30.1174    1.4424    8.0242 O   0  0  0  0  0  0  0  0  0  0  0  0
   26.5016   -1.2123   10.4008 C   0  0  0  0  0  0  0  0  0  0  0  0
   28.3576    3.3833    5.4132 O   0  0  0  0  0  0  0  0  0  0  0  0
   26.8022    0.2587   10.1000 C   0  0  1  0  0  0  0  0  0  0  0  0
   29.0212    5.4106    7.2787 O   0  0  0  0  0  0  0  0  0  0  0  0
   28.2907    0.4863    9.8199 C   0  0  2  0  0  0  0  0  0  0  0  0
   29.8070    2.2407    9.1812 C   0  0  1  0  0  0  0  0  0  0  0  0
   29.2476    1.6767    6.8984 C   0  0  2  0  0  0  0  0  0  0  0  0
   29.6713    0.8158    5.7063 C   0  0  0  0  0  0  0  0  0  0  0  0
   29.2913    3.1464    6.4714 C   0  0  2  0  0  0  0  0  0  0  0  0
   28.9198    4.0368    7.6583 C   0  0  1  0  0  0  0  0  0  0  0  0
   29.8686    3.7298    8.8199 C   0  0  1  0  0  0  0  0  0  0  0  0
  5  4  1  6  0  0  0
  5  8  1  0  0  0  0
  5 16  1  0  0  0  0
  8  7  1  1  0  0  0
  8 10  1  0  0  0  0
 10  1  1  6  0  0  0
 10 12  1  0  0  0  0
 11 18  1  0  0  0  0
 12 14  1  0  0  0  0
 14  2  1  6  0  0  0
 14 16  1  0  0  0  0
 16  9  1  1  0  0  0
 17  9  1  6  0  0  0
 17 11  1  0  0  0  0
 17 22  1  0  0  0  0
 18 19  1  6  0  0  0
 18 20  1  0  0  0  0
 19  3  1  0  0  0  0
 20 13  1  6  0  0  0
 20 21  1  0  0  0  0
 21 15  1  6  0  0  0
 21 22  1  0  0  0  0
 22  6  1  1  0  0  0
M  END
>  <CHROM.1>
68.37158337,50.66127517,167.87574105,28.70384358,1.17623513,8.98893147,1.94167341
1.11300415,2.03953983

>  <Name>
2fcx_lig

>  <RI>
224

>  <Rbt.Current_Directory>
/home/itssahil/PROJECTS/Mol_Feturizer/New_Systems/rnas/2fcx

>  <Rbt.Executable>
rbdock ($Id: //depot/dev/client3/rdock/2013.1/src/exe/rbdock.cxx#4 $)

>  <Rbt.Library>
libRbt.so (2013.1, Build901 2013/11/27)

>  <Rbt.Parameter_File>
/export/apps/rDock/src/rDock_2013.1_src/data/scripts/dock_solv.prm

>  <Rbt.Receptor>
prm/blind_docking_100.prm

>  <SCORE>
-17.7482

>  <SCORE.INTER>
-17.0116

>  <SCORE.INTER.CONST>
1

>  <SCORE.INTER.POLAR>
-2.22996

>  <SCORE.INTER.ROT>
3

>  <SCORE.INTER.SOLV>
16.2989

>  <SCORE.INTER.VDW>
-14.9408

>  <SCORE.INTER.norm>
-0.773254

>  <SCORE.INTRA>
-0.739774

>  <SCORE.INTRA.DIHEDRAL>
-3.59624

>  <SCORE.INTRA.DIHEDRAL.0>
4.88619

>  <SCORE.INTRA.POLAR>
0

>  <SCORE.INTRA.POLAR.0>
0

>  <SCORE.INTRA.REPUL>
0

>  <SCORE.INTRA.REPUL.0>
0

>  <SCORE.INTRA.SOLV>
0.159507

>  <SCORE.INTRA.SOLV.lig_0>
-73.8187

>  <SCORE.INTRA.VDW>
0.978594

>  <SCORE.INTRA.VDW.0>
-1.32335

>  <SCORE.INTRA.norm>
-0.0336261

>  <SCORE.RESTR>
0.00319185

>  <SCORE.RESTR.CAVITY>
0.00319185

>  <SCORE.RESTR.norm>
0.000145084

>  <SCORE.SYSTEM>
0

>  <SCORE.SYSTEM.CONST>
0

>  <SCORE.SYSTEM.DIHEDRAL>
0

>  <SCORE.SYSTEM.SOLV>
0

>  <SCORE.SYSTEM.norm>
0

>  <SCORE.heavy>
22

>  <SCORE.norm>
-0.806735

>  <RMSD>
12.182

$$$$
2fcx_lig
 OpenBabel11021811433D
libRbt.so/2013.1/901 2013/11/27
 22 23  0  0  0  0  0  0  0  0999 V2000
   27.1281    4.5070    2.0209 N   0  0  0  0  0  0  0  0  0  0  0  0
   26.6051    3.8850    6.8597 N   0  0  0  0  0  0  0  0  0  0  0  0
   30.8935    2.9963    8.5548 N   0  0  0  0  0  0  0  0  0  0  0  0
   28.7737    0.4509    4.1794 O   0  0  0  0  0  0  0  0  0  0  0  0
   27.7267    1.4252    4.1842 C   0  0  2  0  0  0  0  0  0  0  0  0
   26.4907   -1.5658    7.0740 N   0  0  0  0  0  0  0  0  0  0  0  0
   27.8730    1.7265    1.8080 O   0  0  0  0  0  0  0  0  0  0  0  0
   27.9452    2.4322    3.0525 C   0  0  1  0  0  0  0  0  0  0  0  0
   27.2698    1.1489    6.5603 O   0  0  0  0  0  0  0  0  0  0  0  0
   26.8734    3.5243    3.0844 C   0  0  1  0  0  0  0  0  0  0  0  0
   29.4000    0.7386    7.4468 O   0  0  0  0  0  0  0  0  0  0  0  0
   26.8733    4.2393    4.4398 C   0  0  0  0  0  0  0  0  0  0  0  0
   28.1907    0.8199   10.9414 O   0  0  0  0  0  0  0  0  0  0  0  0
   26.6063    3.2187    5.5497 C   0  0  1  0  0  0  0  0  0  0  0  0
   26.8292   -1.4462    9.9210 O   0  0  0  0  0  0  0  0  0  0  0  0
   27.6562    2.1037    5.5577 C   0  0  2  0  0  0  0  0  0  0  0  0
   28.2621    0.1367    6.8023 C   0  0  1  0  0  0  0  0  0  0  0  0
   29.1118    1.2998    8.7433 C   0  0  2  0  0  0  0  0  0  0  0  0
   30.3810    1.8834    9.3681 C   0  0  0  0  0  0  0  0  0  0  0  0
   28.5561    0.2317    9.6891 C   0  0  2  0  0  0  0  0  0  0  0  0
   27.3122   -0.4063    9.0684 C   0  0  1  0  0  0  0  0  0  0  0  0
   27.6816   -0.9684    7.6931 C   0  0  1  0  0  0  0  0  0  0  0  0
  5  4  1  1  0  0  0
  5  8  1  0  0  0  0
  5 16  1  0  0  0  0
  8  7  1  6  0  0  0
  8 10  1  0  0  0  0
 10  1  1  6  0  0  0
 10 12  1  0  0  0  0
 11 18  1  0  0  0  0
 12 14  1  0  0  0  0
 14  2  1  1  0  0  0
 14 16  1  0  0  0  0
 16  9  1  1  0  0  0
 17  9  1  1  0  0  0
 17 11  1  0  0  0  0
 17 22  1  0  0  0  0
 18 19  1  1  0  0  0
 18 20  1  0  0  0  0
 19  3  1  0  0  0  0
 20 13  1  1  0  0  0
 20 21  1  0  0  0  0
 21 15  1  1  0  0  0
 21 22  1  0  0  0  0
 22  6  1  6  0  0  0
M  END
>  <CHROM.1>
67.49963594,69.15582434,63.19380868,27.93902036,1.44292761,6.49888903,-1.87982734
1.11732015,2.27930252

>  <Name>
2fcx_lig

>  <RI>
224

>  <Rbt.Current_Directory>
/home/itssahil/PROJECTS/Mol_Feturizer/New_Systems/rnas/2fcx

>  <Rbt.Executable>
rbdock ($Id: //depot/dev/client3/rdock/2013.1/src/exe/rbdock.cxx#4 $)

>  <Rbt.Library>
libRbt.so (2013.1, Build901 2013/11/27)

>  <Rbt.Parameter_File>
/export/apps/rDock/src/rDock_2013.1_src/data/scripts/dock_solv.prm

>  <Rbt.Receptor>
prm/blind_docking_60.prm

>  <SCORE>
-13.0028

>  <SCORE.INTER>
-11.1088

>  <SCORE.INTER.CONST>
1

>  <SCORE.INTER.POLAR>
-1.26819

>  <SCORE.INTER.ROT>
3

>  <SCORE.INTER.SOLV>
12.9475

>  <SCORE.INTER.VDW>
-13.0944

>  <SCORE.INTER.norm>
-0.504947

>  <SCORE.INTRA>
-1.89395

>  <SCORE.INTRA.DIHEDRAL>
-4.1628

>  <SCORE.INTRA.DIHEDRAL.0>
4.88619

>  <SCORE.INTRA.POLAR>
0

>  <SCORE.INTRA.POLAR.0>
0

>  <SCORE.INTRA.REPUL>
0

>  <SCORE.INTRA.REPUL.0>
0

>  <SCORE.INTRA.SOLV>
-0.812575

>  <SCORE.INTRA.SOLV.lig_0>
-73.8187

>  <SCORE.INTRA.VDW>
0.593734

>  <SCORE.INTRA.VDW.0>
-1.32335

>  <SCORE.INTRA.norm>
-0.0860888

>  <SCORE.RESTR>
0

>  <SCORE.RESTR.CAVITY>
0

>  <SCORE.RESTR.norm>
0

>  <SCORE.SYSTEM>
0

>  <SCORE.SYSTEM.CONST>
0

>  <SCORE.SYSTEM.DIHEDRAL>
0

>  <SCORE.SYSTEM.SOLV>
0

>  <SCORE.SYSTEM.norm>
0

>  <SCORE.heavy>
22

>  <SCORE.norm>
-0.591036

>  <RMSD>
12.204

$$$$
2fcx_lig
 OpenBabel11021811433D
libRbt.so/2013.1/901 2013/11/27
 22 23  0  0  0  0  0  0  0  0999 V2000
   29.5104   -2.6356   13.5874 N   0  0  0  0  0  0  0  0  0  0  0  0
   30.7182    0.2056    9.7738 N   0  0  0  0  0  0  0  0  0  0  0  0
   29.2215    4.3081   10.1585 N   0  0  0  0  0  0  0  0  0  0  0  0
   26.0380   -0.4988   10.9050 O   0  0  0  0  0  0  0  0  0  0  0  0
   27.3228   -1.1250   10.8547 C   0  0  2  0  0  0  0  0  0  0  0  0
   26.0573   -0.2938    6.8475 N   0  0  0  0  0  0  0  0  0  0  0  0
   26.7752   -2.6004   12.6662 O   0  0  0  0  0  0  0  0  0  0  0  0
   27.7227   -1.6098   12.2502 C   0  0  1  0  0  0  0  0  0  0  0  0
   28.0290    0.1297    8.8905 O   0  0  0  0  0  0  0  0  0  0  0  0
   29.1259   -2.2203   12.2305 C   0  0  1  0  0  0  0  0  0  0  0  0
   27.3570    2.3630    9.1203 O   0  0  0  0  0  0  0  0  0  0  0  0
   30.1476   -1.2050   11.7073 C   0  0  0  0  0  0  0  0  0  0  0  0
   29.0705    3.4167    6.0163 O   0  0  0  0  0  0  0  0  0  0  0  0
   29.7511   -0.7717   10.2931 C   0  0  1  0  0  0  0  0  0  0  0  0
   27.1055    1.6420    5.0068 O   0  0  0  0  0  0  0  0  0  0  0  0
   28.3505   -0.1528   10.2627 C   0  0  2  0  0  0  0  0  0  0  0  0
   26.9297    1.0435    8.7345 C   0  0  1  0  0  0  0  0  0  0  0  0
   28.4128    2.9018    8.2994 C   0  0  2  0  0  0  0  0  0  0  0  0
   28.7776    4.3159    8.7566 C   0  0  0  0  0  0  0  0  0  0  0  0
   27.9841    2.9655    6.8310 C   0  0  2  0  0  0  0  0  0  0  0  0
   27.5652    1.5726    6.3578 C   0  0  1  0  0  0  0  0  0  0  0  0
   26.4555    1.0538    7.2762 C   0  0  1  0  0  0  0  0  0  0  0  0
  5  4  1  1  0  0  0
  5  8  1  0  0  0  0
  5 16  1  0  0  0  0
  8  7  1  6  0  0  0
  8 10  1  0  0  0  0
 10  1  1  1  0  0  0
 10 12  1  0  0  0  0
 11 18  1  0  0  0  0
 12 14  1  0  0  0  0
 14  2  1  1  0  0  0
 14 16  1  0  0  0  0
 16  9  1  6  0  0  0
 17  9  1  6  0  0  0
 17 11  1  0  0  0  0
 17 22  1  0  0  0  0
 18 19  1  1  0  0  0
 18 20  1  0  0  0  0
 19  3  1  0  0  0  0
 20 13  1  6  0  0  0
 20 21  1  0  0  0  0
 21 15  1  6  0  0  0
 21 22  1  0  0  0  0
 22  6  1  6  0  0  0
M  END
>  <CHROM.1>
76.25031037,71.67370382,59.36791021,28.08772441,0.59523090,9.37886307,-1.46429953
-0.73132036,-0.79403066

>  <Name>
2fcx_lig

>  <RI>
224

>  <Rbt.Current_Directory>
/home/itssahil/PROJECTS/Mol_Feturizer/New_Systems/rnas/2fcx

>  <Rbt.Executable>
rbdock ($Id: //depot/dev/client3/rdock/2013.1/src/exe/rbdock.cxx#4 $)

>  <Rbt.Library>
libRbt.so (2013.1, Build901 2013/11/27)

>  <Rbt.Parameter_File>
/export/apps/rDock/src/rDock_2013.1_src/data/scripts/dock_solv.prm

>  <Rbt.Receptor>
prm/blind_docking_100.prm

>  <SCORE>
-10.3958

>  <SCORE.INTER>
-8.66077

>  <SCORE.INTER.CONST>
1

>  <SCORE.INTER.POLAR>
-1.47716

>  <SCORE.INTER.ROT>
3

>  <SCORE.INTER.SOLV>
17.6968

>  <SCORE.INTER.VDW>
-12.3489

>  <SCORE.INTER.norm>
-0.393671

>  <SCORE.INTRA>
-1.73538

>  <SCORE.INTRA.DIHEDRAL>
-2.99787

>  <SCORE.INTRA.DIHEDRAL.0>
4.88619

>  <SCORE.INTRA.POLAR>
0

>  <SCORE.INTRA.POLAR.0>
0

>  <SCORE.INTRA.REPUL>
0

>  <SCORE.INTRA.REPUL.0>
0

>  <SCORE.INTRA.SOLV>
-0.386596

>  <SCORE.INTRA.SOLV.lig_0>
-73.8187

>  <SCORE.INTRA.VDW>
-0.0431535

>  <SCORE.INTRA.VDW.0>
-1.32335

>  <SCORE.INTRA.norm>
-0.0788811

>  <SCORE.RESTR>
0.000385561

>  <SCORE.RESTR.CAVITY>
0.000385561

>  <SCORE.RESTR.norm>
1.75255e-05

>  <SCORE.SYSTEM>
0

>  <SCORE.SYSTEM.CONST>
0

>  <SCORE.SYSTEM.DIHEDRAL>
0

>  <SCORE.SYSTEM.SOLV>
0

>  <SCORE.SYSTEM.norm>
0

>  <SCORE.heavy>
22

>  <SCORE.norm>
-0.472535

>  <RMSD>
12.218

$$$$
2fcx_lig
 OpenBabel11021811433D
libRbt.so/2013.1/901 2013/11/27
 22 23  0  0  0  0  0  0  0  0999 V2000
   26.8670   -3.4370    8.8272 N   0  0  0  0  0  0  0  0  0  0  0  0
   28.1828    0.4971   11.4475 N   0  0  0  0  0  0  0  0  0  0  0  0
   29.4436    1.6859    4.7876 N   0  0  0  0  0  0  0  0  0  0  0  0
   25.3348    1.0130    7.5356 O   0  0  0  0  0  0  0  0  0  0  0  0
   26.4344    0.2758    8.0769 C   0  0  2  0  0  0  0  0  0  0  0  0
   28.9903    4.3332   10.1511 N   0  0  0  0  0  0  0  0  0  0  0  0
   25.8965   -1.6623    6.7682 O   0  0  0  0  0  0  0  0  0  0  0  0
   26.0948   -1.2161    8.1149 C   0  0  1  0  0  0  0  0  0  0  0  0
   27.2791    2.1718    9.3508 O   0  0  0  0  0  0  0  0  0  0  0  0
   27.2320   -2.0146    8.7563 C   0  0  1  0  0  0  0  0  0  0  0  0
   28.6826    1.6903    7.5370 O   0  0  0  0  0  0  0  0  0  0  0  0
   27.5214   -1.4989   10.1701 C   0  0  0  0  0  0  0  0  0  0  0  0
   27.4541    4.5613    5.5547 O   0  0  0  0  0  0  0  0  0  0  0  0
   27.9038   -0.0179   10.0995 C   0  0  1  0  0  0  0  0  0  0  0  0
   28.6862    5.8688    7.7461 O   0  0  0  0  0  0  0  0  0  0  0  0
   26.7934    0.8237    9.4635 C   0  0  2  0  0  0  0  0  0  0  0  0
   28.6276    2.2573    8.8590 C   0  0  1  0  0  0  0  0  0  0  0  0
   27.8827    2.3912    6.5635 C   0  0  2  0  0  0  0  0  0  0  0  0
   28.0289    1.7441    5.1845 C   0  0  0  0  0  0  0  0  0  0  0  0
   28.3132    3.8567    6.4565 C   0  0  2  0  0  0  0  0  0  0  0  0
   28.2251    4.5192    7.8323 C   0  0  1  0  0  0  0  0  0  0  0  0
   29.0822    3.7214    8.8186 C   0  0  1  0  0  0  0  0  0  0  0  0
  5  4  1  1  0  0  0
  5  8  1  0  0  0  0
  5 16  1  0  0  0  0
  8  7  1  6  0  0  0
  8 10  1  0  0  0  0
 10  1  1  1  0  0  0
 10 12  1  0  0  0  0
 11 18  1  0  0  0  0
 12 14  1  0  0  0  0
 14  2  1  1  0  0  0
 14 16  1  0  0  0  0
 16  9  1  6  0  0  0
 17  9  1  6  0  0  0
 17 11  1  0  0  0  0
 17 22  1  0  0  0  0
 18 19  1  6  0  0  0
 18 20  1  0  0  0  0
 19  3  1  0  0  0  0
 20 13  1  6  0  0  0
 20 21  1  0  0  0  0
 21 15  1  6  0  0  0
 21 22  1  0  0  0  0
 22  6  1  1  0  0  0
M  END
>  <CHROM.1>
-76.19276397,61.39334637,-55.72334731,27.66289347,1.46611073,8.06261531,2.49822459
1.23213509,1.96688293

>  <Name>
2fcx_lig

>  <RI>
224

>  <Rbt.Current_Directory>
/home/itssahil/PROJECTS/Mol_Feturizer/New_Systems/rnas/2fcx

>  <Rbt.Executable>
rbdock ($Id: //depot/dev/client3/rdock/2013.1/src/exe/rbdock.cxx#4 $)

>  <Rbt.Library>
libRbt.so (2013.1, Build901 2013/11/27)

>  <Rbt.Parameter_File>
/export/apps/rDock/src/rDock_2013.1_src/data/scripts/dock_solv.prm

>  <Rbt.Receptor>
prm/blind_docking_60.prm

>  <SCORE>
-10.7387

>  <SCORE.INTER>
-12.3118

>  <SCORE.INTER.CONST>
1

>  <SCORE.INTER.POLAR>
-2.26042

>  <SCORE.INTER.ROT>
3

>  <SCORE.INTER.SOLV>
20.6271

>  <SCORE.INTER.VDW>
-13.1488

>  <SCORE.INTER.norm>
-0.559626

>  <SCORE.INTRA>
1.46744

>  <SCORE.INTRA.DIHEDRAL>
-3.58634

>  <SCORE.INTRA.DIHEDRAL.0>
4.88619

>  <SCORE.INTRA.POLAR>
0

>  <SCORE.INTRA.POLAR.0>
0

>  <SCORE.INTRA.REPUL>
0

>  <SCORE.INTRA.REPUL.0>
0

>  <SCORE.INTRA.SOLV>
1.84421

>  <SCORE.INTRA.SOLV.lig_0>
-73.8187

>  <SCORE.INTRA.VDW>
2.33851

>  <SCORE.INTRA.VDW.0>
-1.32335

>  <SCORE.INTRA.norm>
0.0667017

>  <SCORE.RESTR>
0.105625

>  <SCORE.RESTR.CAVITY>
0.105625

>  <SCORE.RESTR.norm>
0.00480114

>  <SCORE.SYSTEM>
0

>  <SCORE.SYSTEM.CONST>
0

>  <SCORE.SYSTEM.DIHEDRAL>
0

>  <SCORE.SYSTEM.SOLV>
0

>  <SCORE.SYSTEM.norm>
0

>  <SCORE.heavy>
22

>  <SCORE.norm>
-0.488123

>  <RMSD>
12.219

$$$$
2fcx_lig
 OpenBabel11021811433D
libRbt.so/2013.1/901 2013/11/27
 22 23  0  0  0  0  0  0  0  0999 V2000
   26.7422    4.0085    0.8979 N   0  0  0  0  0  0  0  0  0  0  0  0
   29.3301    0.7415    3.4871 N   0  0  0  0  0  0  0  0  0  0  0  0
   30.9301   -0.1707    9.8010 N   0  0  0  0  0  0  0  0  0  0  0  0
   26.2883    3.7904    5.7523 O   0  0  0  0  0  0  0  0  0  0  0  0
   27.2114    3.6719    4.6664 C   0  0  2  0  0  0  0  0  0  0  0  0
   26.3455    0.4340    5.9816 N   0  0  0  0  0  0  0  0  0  0  0  0
   26.0402    5.3186    3.3722 O   0  0  0  0  0  0  0  0  0  0  0  0
   26.5007    3.9624    3.3425 C   0  0  1  0  0  0  0  0  0  0  0  0
   28.6618    2.1257    5.8651 O   0  0  0  0  0  0  0  0  0  0  0  0
   27.4554    3.7719    2.1616 C   0  0  1  0  0  0  0  0  0  0  0  0
   29.8361    0.6685    7.2756 O   0  0  0  0  0  0  0  0  0  0  0  0
   28.0290    2.3509    2.1566 C   0  0  0  0  0  0  0  0  0  0  0  0
   28.0549    1.8281   10.3028 O   0  0  0  0  0  0  0  0  0  0  0  0
   28.7743    2.1019    3.4709 C   0  0  1  0  0  0  0  0  0  0  0  0
   25.9454    0.6602    8.8141 O   0  0  0  0  0  0  0  0  0  0  0  0
   27.8571    2.2810    4.6843 C   0  0  2  0  0  0  0  0  0  0  0  0
   28.7736    0.7625    6.3088 C   0  0  1  0  0  0  0  0  0  0  0  0
   29.6088    1.4364    8.4746 C   0  0  2  0  0  0  0  0  0  0  0  0
   30.7669    1.2498    9.4574 C   0  0  0  0  0  0  0  0  0  0  0  0
   28.3146    0.9989    9.1659 C   0  0  2  0  0  0  0  0  0  0  0  0
   27.1432    1.1273    8.1907 C   0  0  1  0  0  0  0  0  0  0  0  0
   27.4528    0.3030    6.9383 C   0  0  1  0  0  0  0  0  0  0  0  0
  5  4  1  1  0  0  0
  5  8  1  0  0  0  0
  5 16  1  0  0  0  0
  8  7  1  1  0  0  0
  8 10  1  0  0  0  0
 10  1  1  6  0  0  0
 10 12  1  0  0  0  0
 11 18  1  0  0  0  0
 12 14  1  0  0  0  0
 14  2  1  6  0  0  0
 14 16  1  0  0  0  0
 16  9  1  1  0  0  0
 17  9  1  1  0  0  0
 17 11  1  0  0  0  0
 17 22  1  0  0  0  0
 18 19  1  1  0  0  0
 18 20  1  0  0  0  0
 19  3  1  0  0  0  0
 20 13  1  1  0  0  0
 20 21  1  0  0  0  0
 21 15  1  1  0  0  0
 21 22  1  0  0  0  0
 22  6  1  6  0  0  0
M  END
>  <CHROM.1>
151.82771535,166.20967213,-58.30628624,27.98550418,1.98794256,5.97815607
-1.87757856,-0.51863170,1.83004504

>  <Name>
2fcx_lig

>  <RI>
224

>  <Rbt.Current_Directory>
/home/itssahil/PROJECTS/Mol_Feturizer/New_Systems/rnas/2fcx

>  <Rbt.Executable>
rbdock ($Id: //depot/dev/client3/rdock/2013.1/src/exe/rbdock.cxx#4 $)

>  <Rbt.Library>
libRbt.so (2013.1, Build901 2013/11/27)

>  <Rbt.Parameter_File>
/export/apps/rDock/src/rDock_2013.1_src/data/scripts/dock_solv.prm

>  <Rbt.Receptor>
prm/blind_docking_100.prm

>  <SCORE>
-12.2365

>  <SCORE.INTER>
-14.4732

>  <SCORE.INTER.CONST>
1

>  <SCORE.INTER.POLAR>
-1.70123

>  <SCORE.INTER.ROT>
3

>  <SCORE.INTER.SOLV>
9.50494

>  <SCORE.INTER.VDW>
-12.7463

>  <SCORE.INTER.norm>
-0.657872

>  <SCORE.INTRA>
2.23459

>  <SCORE.INTRA.DIHEDRAL>
-0.714429

>  <SCORE.INTRA.DIHEDRAL.0>
4.88619

>  <SCORE.INTRA.POLAR>
0

>  <SCORE.INTRA.POLAR.0>
0

>  <SCORE.INTRA.REPUL>
0

>  <SCORE.INTRA.REPUL.0>
0

>  <SCORE.INTRA.SOLV>
4.4071

>  <SCORE.INTRA.SOLV.lig_0>
-73.8187

>  <SCORE.INTRA.VDW>
0.388257

>  <SCORE.INTRA.VDW.0>
-1.32335

>  <SCORE.INTRA.norm>
0.101572

>  <SCORE.RESTR>
0.00207968

>  <SCORE.RESTR.CAVITY>
0.00207968

>  <SCORE.RESTR.norm>
9.45309e-05

>  <SCORE.SYSTEM>
0

>  <SCORE.SYSTEM.CONST>
0

>  <SCORE.SYSTEM.DIHEDRAL>
0

>  <SCORE.SYSTEM.SOLV>
0

>  <SCORE.SYSTEM.norm>
0

>  <SCORE.heavy>
22

>  <SCORE.norm>
-0.556205

>  <RMSD>
12.261

$$$$
2fcx_lig
 OpenBabel11021811433D
libRbt.so/2013.1/901 2013/11/27
 22 23  0  0  0  0  0  0  0  0999 V2000
   27.3082    3.6913    1.4466 N   0  0  0  0  0  0  0  0  0  0  0  0
   29.7939    0.3126    3.9922 N   0  0  0  0  0  0  0  0  0  0  0  0
   31.9440    0.8194    9.5844 N   0  0  0  0  0  0  0  0  0  0  0  0
   26.3113    2.9280    6.1628 O   0  0  0  0  0  0  0  0  0  0  0  0
   27.3599    2.9780    5.1914 C   0  0  2  0  0  0  0  0  0  0  0  0
   26.3288   -0.1274    6.3735 N   0  0  0  0  0  0  0  0  0  0  0  0
   26.2377    4.6871    3.9352 O   0  0  0  0  0  0  0  0  0  0  0  0
   26.7891    3.3695    3.8263 C   0  0  1  0  0  0  0  0  0  0  0  0
   28.7629    1.3942    6.3974 O   0  0  0  0  0  0  0  0  0  0  0  0
   27.8848    3.3600    2.7578 C   0  0  1  0  0  0  0  0  0  0  0  0
   29.7752   -0.1878    7.7988 O   0  0  0  0  0  0  0  0  0  0  0  0
   28.5497    1.9815    2.6806 C   0  0  0  0  0  0  0  0  0  0  0  0
   27.9674    1.0033   10.7979 O   0  0  0  0  0  0  0  0  0  0  0  0
   29.1530    1.6342    4.0445 C   0  0  1  0  0  0  0  0  0  0  0  0
   25.8381    0.0389    9.1959 O   0  0  0  0  0  0  0  0  0  0  0  0
   28.0916    1.6310    5.1486 C   0  0  2  0  0  0  0  0  0  0  0  0
   28.7598    0.0133    6.7984 C   0  0  1  0  0  0  0  0  0  0  0  0
   29.5579    0.5568    9.0142 C   0  0  2  0  0  0  0  0  0  0  0  0
   30.6613    0.2559   10.0309 C   0  0  0  0  0  0  0  0  0  0  0  0
   28.2103    0.1933    9.6435 C   0  0  2  0  0  0  0  0  0  0  0  0
   27.0892    0.4369    8.6319 C   0  0  1  0  0  0  0  0  0  0  0  0
   27.3865   -0.3683    7.3642 C   0  0  1  0  0  0  0  0  0  0  0  0
  5  4  1  1  0  0  0
  5  8  1  0  0  0  0
  5 16  1  0  0  0  0
  8  7  1  1  0  0  0
  8 10  1  0  0  0  0
 10  1  1  6  0  0  0
 10 12  1  0  0  0  0
 11 18  1  0  0  0  0
 12 14  1  0  0  0  0
 14  2  1  6  0  0  0
 14 16  1  0  0  0  0
 16  9  1  1  0  0  0
 17  9  1  1  0  0  0
 17 11  1  0  0  0  0
 17 22  1  0  0  0  0
 18 19  1  1  0  0  0
 18 20  1  0  0  0  0
 19  3  1  0  0  0  0
 20 13  1  1  0  0  0
 20 21  1  0  0  0  0
 21 15  1  1  0  0  0
 21 22  1  0  0  0  0
 22  6  1  6  0  0  0
M  END
>  <CHROM.1>
144.11727243,162.35733025,69.11104590,28.14912052,1.40103136,6.44361033,-1.79483027
-0.28004397,1.93363566

>  <Name>
2fcx_lig

>  <RI>
224

>  <Rbt.Current_Directory>
/home/itssahil/PROJECTS/Mol_Feturizer/New_Systems/rnas/2fcx

>  <Rbt.Executable>
rbdock ($Id: //depot/dev/client3/rdock/2013.1/src/exe/rbdock.cxx#4 $)

>  <Rbt.Library>
libRbt.so (2013.1, Build901 2013/11/27)

>  <Rbt.Parameter_File>
/export/apps/rDock/src/rDock_2013.1_src/data/scripts/dock_solv.prm

>  <Rbt.Receptor>
prm/blind_docking_60.prm

>  <SCORE>
-10.472

>  <SCORE.INTER>
-12.2788

>  <SCORE.INTER.CONST>
1

>  <SCORE.INTER.POLAR>
-1.61996

>  <SCORE.INTER.ROT>
3

>  <SCORE.INTER.SOLV>
13.7206

>  <SCORE.INTER.VDW>
-12.9595

>  <SCORE.INTER.norm>
-0.558127

>  <SCORE.INTRA>
1.80679

>  <SCORE.INTRA.DIHEDRAL>
1.5318

>  <SCORE.INTRA.DIHEDRAL.0>
4.88619

>  <SCORE.INTRA.POLAR>
0

>  <SCORE.INTRA.POLAR.0>
0

>  <SCORE.INTRA.REPUL>
0

>  <SCORE.INTRA.REPUL.0>
0

>  <SCORE.INTRA.SOLV>
2.43636

>  <SCORE.INTRA.SOLV.lig_0>
-73.8187

>  <SCORE.INTRA.VDW>
-0.177293

>  <SCORE.INTRA.VDW.0>
-1.32335

>  <SCORE.INTRA.norm>
0.0821267

>  <SCORE.RESTR>
0

>  <SCORE.RESTR.CAVITY>
0

>  <SCORE.RESTR.norm>
0

>  <SCORE.SYSTEM>
0

>  <SCORE.SYSTEM.CONST>
0

>  <SCORE.SYSTEM.DIHEDRAL>
0

>  <SCORE.SYSTEM.SOLV>
0

>  <SCORE.SYSTEM.norm>
0

>  <SCORE.heavy>
22

>  <SCORE.norm>
-0.476001

>  <RMSD>
12.261

$$$$
2fcx_lig
 OpenBabel11021811433D
libRbt.so/2013.1/901 2013/11/27
 22 23  0  0  0  0  0  0  0  0999 V2000
   25.7418    4.4736    1.9122 N   0  0  0  0  0  0  0  0  0  0  0  0
   26.4737    3.5151    6.6683 N   0  0  0  0  0  0  0  0  0  0  0  0
   29.3126    4.2856   10.1422 N   0  0  0  0  0  0  0  0  0  0  0  0
   29.5338    1.7450    3.3243 O   0  0  0  0  0  0  0  0  0  0  0  0
   28.1627    2.0529    3.5899 C   0  0  2  0  0  0  0  0  0  0  0  0
   29.5462   -1.0622    6.3873 N   0  0  0  0  0  0  0  0  0  0  0  0
   27.7112    2.4639    1.2693 O   0  0  0  0  0  0  0  0  0  0  0  0
   27.6474    3.0677    2.5667 C   0  0  1  0  0  0  0  0  0  0  0  0
   28.3375    1.5058    5.9566 O   0  0  0  0  0  0  0  0  0  0  0  0
   26.2019    3.4635    2.8764 C   0  0  1  0  0  0  0  0  0  0  0  0
   30.1757    2.5719    6.9448 O   0  0  0  0  0  0  0  0  0  0  0  0
   26.0919    4.0350    4.2940 C   0  0  0  0  0  0  0  0  0  0  0  0
   29.1209    1.6704   10.3736 O   0  0  0  0  0  0  0  0  0  0  0  0
   26.5687    2.9846    5.3010 C   0  0  1  0  0  0  0  0  0  0  0  0
   29.6395   -0.8786    9.2494 O   0  0  0  0  0  0  0  0  0  0  0  0
   28.0142    2.5566    5.0308 C   0  0  2  0  0  0  0  0  0  0  0  0
   29.7444    1.3970    6.2335 C   0  0  1  0  0  0  0  0  0  0  0  0
   29.5512    2.7405    8.2334 C   0  0  2  0  0  0  0  0  0  0  0  0
   30.0932    3.9897    8.9316 C   0  0  0  0  0  0  0  0  0  0  0  0
   29.8198    1.5308    9.1327 C   0  0  2  0  0  0  0  0  0  0  0  0
   29.3327    0.2575    8.4391 C   0  0  1  0  0  0  0  0  0  0  0  0
   30.0207    0.1457    7.0759 C   0  0  1  0  0  0  0  0  0  0  0  0
  5  4  1  6  0  0  0
  5  8  1  0  0  0  0
  5 16  1  0  0  0  0
  8  7  1  6  0  0  0
  8 10  1  0  0  0  0
 10  1  1  6  0  0  0
 10 12  1  0  0  0  0
 11 18  1  0  0  0  0
 12 14  1  0  0  0  0
 14  2  1  1  0  0  0
 14 16  1  0  0  0  0
 16  9  1  1  0  0  0
 17  9  1  1  0  0  0
 17 11  1  0  0  0  0
 17 22  1  0  0  0  0
 18 19  1  1  0  0  0
 18 20  1  0  0  0  0
 19  3  1  0  0  0  0
 20 13  1  1  0  0  0
 20 21  1  0  0  0  0
 21 15  1  1  0  0  0
 21 22  1  0  0  0  0
 22  6  1  6  0  0  0
M  END
>  <CHROM.1>
84.94863974,66.79925670,170.99741501,28.51520181,2.18456783,6.09937240,2.38253117
1.02625536,-2.03643311

>  <Name>
2fcx_lig

>  <RI>
2.51704e+07

>  <Rbt.Current_Directory>
/home/itssahil/PROJECTS/Mol_Feturizer/New_Systems/rnas/2fcx

>  <Rbt.Executable>
rbdock ($Id: //depot/dev/client3/rdock/2013.1/src/exe/rbdock.cxx#4 $)

>  <Rbt.Library>
libRbt.so (2013.1, Build901 2013/11/27)

>  <Rbt.Parameter_File>
/export/apps/rDock/src/rDock_2013.1_src/data/scripts/dock_solv.prm

>  <Rbt.Receptor>
prm/blind_docking_80.prm

>  <SCORE>
-14.5

>  <SCORE.INTER>
-14.2748

>  <SCORE.INTER.CONST>
1

>  <SCORE.INTER.POLAR>
-2.17962

>  <SCORE.INTER.ROT>
3

>  <SCORE.INTER.SOLV>
13.3466

>  <SCORE.INTER.VDW>
-12.3

>  <SCORE.INTER.norm>
-0.648855

>  <SCORE.INTRA>
-0.355923

>  <SCORE.INTRA.DIHEDRAL>
-1.70137

>  <SCORE.INTRA.DIHEDRAL.0>
4.88619

>  <SCORE.INTRA.POLAR>
0

>  <SCORE.INTRA.POLAR.0>
0

>  <SCORE.INTRA.REPUL>
0

>  <SCORE.INTRA.REPUL.0>
0

>  <SCORE.INTRA.SOLV>
1.14437

>  <SCORE.INTRA.SOLV.lig_0>
-73.8187

>  <SCORE.INTRA.VDW>
-0.0774267

>  <SCORE.INTRA.VDW.0>
-1.32335

>  <SCORE.INTRA.norm>
-0.0161783

>  <SCORE.RESTR>
0.130727

>  <SCORE.RESTR.CAVITY>
0.130727

>  <SCORE.RESTR.norm>
0.00594216

>  <SCORE.SYSTEM>
0

>  <SCORE.SYSTEM.CONST>
0

>  <SCORE.SYSTEM.DIHEDRAL>
0

>  <SCORE.SYSTEM.SOLV>
0

>  <SCORE.SYSTEM.norm>
0

>  <SCORE.heavy>
22

>  <SCORE.norm>
-0.659091

>  <RMSD>
12.261

$$$$
2fcx_lig
 OpenBabel11021811433D
libRbt.so/2013.1/901 2013/11/27
 22 23  0  0  0  0  0  0  0  0999 V2000
   27.1229    4.5173    2.0939 N   0  0  0  0  0  0  0  0  0  0  0  0
   25.9260    3.5813    6.7593 N   0  0  0  0  0  0  0  0  0  0  0  0
   29.7885    2.8308    9.9968 N   0  0  0  0  0  0  0  0  0  0  0  0
   28.6512    0.4190    4.2588 O   0  0  0  0  0  0  0  0  0  0  0  0
   27.5633    1.3418    4.1572 C   0  0  2  0  0  0  0  0  0  0  0  0
   25.9608   -1.7341    7.2112 N   0  0  0  0  0  0  0  0  0  0  0  0
   28.0421    1.7922    1.8494 O   0  0  0  0  0  0  0  0  0  0  0  0
   27.8910    2.4242    3.1260 C   0  0  1  0  0  0  0  0  0  0  0  0
   26.7763    0.9019    6.4196 O   0  0  0  0  0  0  0  0  0  0  0  0
   26.7681    3.4616    3.0536 C   0  0  1  0  0  0  0  0  0  0  0  0
   28.9399    0.5104    7.2304 O   0  0  0  0  0  0  0  0  0  0  0  0
   26.5287    4.0929    4.4293 C   0  0  0  0  0  0  0  0  0  0  0  0
   27.9189    0.9316   10.7605 O   0  0  0  0  0  0  0  0  0  0  0  0
   26.1571    2.9960    5.4311 C   0  0  1  0  0  0  0  0  0  0  0  0
   26.4517   -1.3754   10.0156 O   0  0  0  0  0  0  0  0  0  0  0  0
   27.2537    1.9322    5.5383 C   0  0  2  0  0  0  0  0  0  0  0  0
   27.7556   -0.1130    6.7002 C   0  0  1  0  0  0  0  0  0  0  0  0
   28.7341    1.1908    8.4848 C   0  0  2  0  0  0  0  0  0  0  0  0
   30.0480    1.7905    8.9904 C   0  0  0  0  0  0  0  0  0  0  0  0
   28.2036    0.2259    9.5487 C   0  0  2  0  0  0  0  0  0  0  0  0
   26.9138   -0.4284    9.0506 C   0  0  1  0  0  0  0  0  0  0  0  0
   27.1966   -1.1190    7.7138 C   0  0  1  0  0  0  0  0  0  0  0  0
  5  4  1  1  0  0  0
  5  8  1  0  0  0  0
  5 16  1  0  0  0  0
  8  7  1  6  0  0  0
  8 10  1  0  0  0  0
 10  1  1  6  0  0  0
 10 12  1  0  0  0  0
 11 18  1  0  0  0  0
 12 14  1  0  0  0  0
 14  2  1  1  0  0  0
 14 16  1  0  0  0  0
 16  9  1  1  0  0  0
 17  9  1  1  0  0  0
 17 11  1  0  0  0  0
 17 22  1  0  0  0  0
 18 19  1  1  0  0  0
 18 20  1  0  0  0  0
 19  3  1  0  0  0  0
 20 13  1  1  0  0  0
 20 21  1  0  0  0  0
 21 15  1  1  0  0  0
 21 22  1  0  0  0  0
 22  6  1  6  0  0  0
M  END
>  <CHROM.1>
64.50921661,55.70940837,161.46022223,27.58520060,1.34489793,6.50870886,-1.82358282
1.20992694,2.22586335

>  <Name>
2fcx_lig

>  <RI>
224

>  <Rbt.Current_Directory>
/home/itssahil/PROJECTS/Mol_Feturizer/New_Systems/rnas/2fcx

>  <Rbt.Executable>
rbdock ($Id: //depot/dev/client3/rdock/2013.1/src/exe/rbdock.cxx#4 $)

>  <Rbt.Library>
libRbt.so (2013.1, Build901 2013/11/27)

>  <Rbt.Parameter_File>
/export/apps/rDock/src/rDock_2013.1_src/data/scripts/dock_solv.prm

>  <Rbt.Receptor>
prm/blind_docking_60.prm

>  <SCORE>
-14.1522

>  <SCORE.INTER>
-13.407

>  <SCORE.INTER.CONST>
1

>  <SCORE.INTER.POLAR>
-2.03948

>  <SCORE.INTER.ROT>
3

>  <SCORE.INTER.SOLV>
16.1985

>  <SCORE.INTER.VDW>
-13.1393

>  <SCORE.INTER.norm>
-0.60941

>  <SCORE.INTRA>
-0.74517

>  <SCORE.INTRA.DIHEDRAL>
-3.53228

>  <SCORE.INTRA.DIHEDRAL.0>
4.88619

>  <SCORE.INTRA.POLAR>
0

>  <SCORE.INTRA.POLAR.0>
0

>  <SCORE.INTRA.REPUL>
0

>  <SCORE.INTRA.REPUL.0>
0

>  <SCORE.INTRA.SOLV>
-0.130224

>  <SCORE.INTRA.SOLV.lig_0>
-73.8187

>  <SCORE.INTRA.VDW>
1.08608

>  <SCORE.INTRA.VDW.0>
-1.32335

>  <SCORE.INTRA.norm>
-0.0338714

>  <SCORE.RESTR>
0

>  <SCORE.RESTR.CAVITY>
0

>  <SCORE.RESTR.norm>
0

>  <SCORE.SYSTEM>
0

>  <SCORE.SYSTEM.CONST>
0

>  <SCORE.SYSTEM.DIHEDRAL>
0

>  <SCORE.SYSTEM.SOLV>
0

>  <SCORE.SYSTEM.norm>
0

>  <SCORE.heavy>
22

>  <SCORE.norm>
-0.643282

>  <RMSD>
12.280

$$$$
2fcx_lig
 OpenBabel11021811433D
libRbt.so/2013.1/901 2013/11/27
 22 23  0  0  0  0  0  0  0  0999 V2000
   27.1137    4.4880    2.1197 N   0  0  0  0  0  0  0  0  0  0  0  0
   25.9167    3.5307    6.7808 N   0  0  0  0  0  0  0  0  0  0  0  0
   29.7883    2.8293    9.9749 N   0  0  0  0  0  0  0  0  0  0  0  0
   28.6474    0.3829    4.2679 O   0  0  0  0  0  0  0  0  0  0  0  0
   27.5581    1.3045    4.1699 C   0  0  2  0  0  0  0  0  0  0  0  0
   25.9687   -1.7785    7.2466 N   0  0  0  0  0  0  0  0  0  0  0  0
   28.0370    1.7653    1.8641 O   0  0  0  0  0  0  0  0  0  0  0  0
   27.8845    2.3918    3.1433 C   0  0  1  0  0  0  0  0  0  0  0  0
   26.7711    0.8540    6.4301 O   0  0  0  0  0  0  0  0  0  0  0  0
   26.7601    3.4277    3.0750 C   0  0  1  0  0  0  0  0  0  0  0  0
   28.9391    0.4775    7.2363 O   0  0  0  0  0  0  0  0  0  0  0  0
   26.5194    4.0529    4.4532 C   0  0  0  0  0  0  0  0  0  0  0  0
   27.9292    0.9242   10.7665 O   0  0  0  0  0  0  0  0  0  0  0  0
   26.1490    2.9513    5.4502 C   0  0  1  0  0  0  0  0  0  0  0  0
   26.4683   -1.3946   10.0461 O   0  0  0  0  0  0  0  0  0  0  0  0
   27.2472    1.8887    5.5533 C   0  0  2  0  0  0  0  0  0  0  0  0
   27.7553   -0.1548    6.7156 C   0  0  1  0  0  0  0  0  0  0  0  0
   28.7351    1.1676    8.4858 C   0  0  2  0  0  0  0  0  0  0  0  0
   30.0485    1.7765    8.9817 C   0  0  0  0  0  0  0  0  0  0  0  0
   28.2122    0.2096    9.5595 C   0  0  2  0  0  0  0  0  0  0  0  0
   26.9232   -0.4538    9.0716 C   0  0  1  0  0  0  0  0  0  0  0  0
   27.2038   -1.1544    7.7396 C   0  0  1  0  0  0  0  0  0  0  0  0
  5  4  1  1  0  0  0
  5  8  1  0  0  0  0
  5 16  1  0  0  0  0
  8  7  1  6  0  0  0
  8 10  1  0  0  0  0
 10  1  1  6  0  0  0
 10 12  1  0  0  0  0
 11 18  1  0  0  0  0
 12 14  1  0  0  0  0
 14  2  1  1  0  0  0
 14 16  1  0  0  0  0
 16  9  1  1  0  0  0
 17  9  1  1  0  0  0
 17 11  1  0  0  0  0
 17 22  1  0  0  0  0
 18 19  1  1  0  0  0
 18 20  1  0  0  0  0
 19  3  1  0  0  0  0
 20 13  1  1  0  0  0
 20 21  1  0  0  0  0
 21 15  1  1  0  0  0
 21 22  1  0  0  0  0
 22  6  1  6  0  0  0
M  END
>  <CHROM.1>
64.99310047,54.89632182,161.14671948,27.58457888,1.31399638,6.52280592,-1.82691529
1.21101720,2.22865013

>  <Name>
2fcx_lig

>  <RI>
224

>  <Rbt.Current_Directory>
/home/itssahil/PROJECTS/Mol_Feturizer/New_Systems/rnas/2fcx

>  <Rbt.Executable>
rbdock ($Id: //depot/dev/client3/rdock/2013.1/src/exe/rbdock.cxx#4 $)

>  <Rbt.Library>
libRbt.so (2013.1, Build901 2013/11/27)

>  <Rbt.Parameter_File>
/export/apps/rDock/src/rDock_2013.1_src/data/scripts/dock_solv.prm

>  <Rbt.Receptor>
prm/blind_docking_60.prm

>  <SCORE>
-14.1918

>  <SCORE.INTER>
-13.4609

>  <SCORE.INTER.CONST>
1

>  <SCORE.INTER.POLAR>
-2.05139

>  <SCORE.INTER.ROT>
3

>  <SCORE.INTER.SOLV>
16.1501

>  <SCORE.INTER.VDW>
-13.1193

>  <SCORE.INTER.norm>
-0.611857

>  <SCORE.INTRA>
-0.730908

>  <SCORE.INTRA.DIHEDRAL>
-3.43656

>  <SCORE.INTRA.DIHEDRAL.0>
4.88619

>  <SCORE.INTRA.POLAR>
0

>  <SCORE.INTRA.POLAR.0>
0

>  <SCORE.INTRA.REPUL>
0

>  <SCORE.INTRA.REPUL.0>
0

>  <SCORE.INTRA.SOLV>
-0.124673

>  <SCORE.INTRA.SOLV.lig_0>
-73.8187

>  <SCORE.INTRA.VDW>
1.04971

>  <SCORE.INTRA.VDW.0>
-1.32335

>  <SCORE.INTRA.norm>
-0.0332231

>  <SCORE.RESTR>
0

>  <SCORE.RESTR.CAVITY>
0

>  <SCORE.RESTR.norm>
0

>  <SCORE.SYSTEM>
0

>  <SCORE.SYSTEM.CONST>
0

>  <SCORE.SYSTEM.DIHEDRAL>
0

>  <SCORE.SYSTEM.SOLV>
0

>  <SCORE.SYSTEM.norm>
0

>  <SCORE.heavy>
22

>  <SCORE.norm>
-0.64508

>  <RMSD>
12.293

$$$$
2fcx_lig
 OpenBabel11021811433D
libRbt.so/2013.1/901 2013/11/27
 22 23  0  0  0  0  0  0  0  0999 V2000
   28.4059   -3.0768    8.9462 N   0  0  0  0  0  0  0  0  0  0  0  0
   30.1745    1.2194    7.3684 N   0  0  0  0  0  0  0  0  0  0  0  0
   28.9539    4.3719   10.1358 N   0  0  0  0  0  0  0  0  0  0  0  0
   25.3742    0.5903    7.8599 O   0  0  0  0  0  0  0  0  0  0  0  0
   26.5935   -0.0572    7.4861 C   0  0  2  0  0  0  0  0  0  0  0  0
   25.8309    3.1562    4.6033 N   0  0  0  0  0  0  0  0  0  0  0  0
   25.7673   -2.2050    8.1661 O   0  0  0  0  0  0  0  0  0  0  0  0
   26.8346   -1.2743    8.3821 C   0  0  1  0  0  0  0  0  0  0  0  0
   27.5679    1.9729    6.5586 O   0  0  0  0  0  0  0  0  0  0  0  0
   28.1704   -1.9401    8.0439 C   0  0  1  0  0  0  0  0  0  0  0  0
   27.1331    3.7259    8.0519 O   0  0  0  0  0  0  0  0  0  0  0  0
   29.3221   -0.9392    8.1854 C   0  0  0  0  0  0  0  0  0  0  0  0
   29.3297    6.0896    6.2438 O   0  0  0  0  0  0  0  0  0  0  0  0
   29.0809    0.2452    7.2454 C   0  0  1  0  0  0  0  0  0  0  0  0
   27.3154    5.5946    4.3130 O   0  0  0  0  0  0  0  0  0  0  0  0
   27.7524    0.9453    7.5466 C   0  0  2  0  0  0  0  0  0  0  0  0
   26.6088    2.9732    6.9425 C   0  0  1  0  0  0  0  0  0  0  0  0
   28.3378    4.4576    7.7481 C   0  0  2  0  0  0  0  0  0  0  0  0
   28.8025    5.2543    8.9692 C   0  0  0  0  0  0  0  0  0  0  0  0
   28.1057    5.4363    6.5938 C   0  0  2  0  0  0  0  0  0  0  0  0
   27.5922    4.6747    5.3707 C   0  0  1  0  0  0  0  0  0  0  0  0
   26.3245    3.9111    5.7629 C   0  0  1  0  0  0  0  0  0  0  0  0
  5  4  1  1  0  0  0
  5  8  1  0  0  0  0
  5 16  1  0  0  0  0
  8  7  1  6  0  0  0
  8 10  1  0  0  0  0
 10  1  1  1  0  0  0
 10 12  1  0  0  0  0
 11 18  1  0  0  0  0
 12 14  1  0  0  0  0
 14  2  1  1  0  0  0
 14 16  1  0  0  0  0
 16  9  1  6  0  0  0
 17  9  1  6  0  0  0
 17 11  1  0  0  0  0
 17 22  1  0  0  0  0
 18 19  1  1  0  0  0
 18 20  1  0  0  0  0
 19  3  1  0  0  0  0
 20 13  1  6  0  0  0
 20 21  1  0  0  0  0
 21 15  1  6  0  0  0
 21 22  1  0  0  0  0
 22  6  1  6  0  0  0
M  END
>  <CHROM.1>
78.20833868,67.39803059,54.54159732,27.68043908,2.07704922,7.28596255,-1.65042029
-0.72449380,-0.31676552

>  <Name>
2fcx_lig

>  <RI>
2.51704e+07

>  <Rbt.Current_Directory>
/home/itssahil/PROJECTS/Mol_Feturizer/New_Systems/rnas/2fcx

>  <Rbt.Executable>
rbdock ($Id: //depot/dev/client3/rdock/2013.1/src/exe/rbdock.cxx#4 $)

>  <Rbt.Library>
libRbt.so (2013.1, Build901 2013/11/27)

>  <Rbt.Parameter_File>
/export/apps/rDock/src/rDock_2013.1_src/data/scripts/dock_solv.prm

>  <Rbt.Receptor>
prm/blind_docking_80.prm

>  <SCORE>
-10.1207

>  <SCORE.INTER>
-8.47275

>  <SCORE.INTER.CONST>
1

>  <SCORE.INTER.POLAR>
-2.04214

>  <SCORE.INTER.ROT>
3

>  <SCORE.INTER.SOLV>
14.6836

>  <SCORE.INTER.VDW>
-9.33592

>  <SCORE.INTER.norm>
-0.385125

>  <SCORE.INTRA>
-1.7402

>  <SCORE.INTRA.DIHEDRAL>
-2.98541

>  <SCORE.INTRA.DIHEDRAL.0>
4.88619

>  <SCORE.INTRA.POLAR>
0

>  <SCORE.INTRA.POLAR.0>
0

>  <SCORE.INTRA.REPUL>
0

>  <SCORE.INTRA.REPUL.0>
0

>  <SCORE.INTRA.SOLV>
-0.252187

>  <SCORE.INTRA.SOLV.lig_0>
-73.8187

>  <SCORE.INTRA.VDW>
-0.121406

>  <SCORE.INTRA.VDW.0>
-1.32335

>  <SCORE.INTRA.norm>
-0.0791001

>  <SCORE.RESTR>
0.0922715

>  <SCORE.RESTR.CAVITY>
0.0922715

>  <SCORE.RESTR.norm>
0.00419416

>  <SCORE.SYSTEM>
0

>  <SCORE.SYSTEM.CONST>
0

>  <SCORE.SYSTEM.DIHEDRAL>
0

>  <SCORE.SYSTEM.SOLV>
0

>  <SCORE.SYSTEM.norm>
0

>  <SCORE.heavy>
22

>  <SCORE.norm>
-0.460031

>  <RMSD>
12.297

$$$$
2fcx_lig
 OpenBabel11021811433D
libRbt.so/2013.1/901 2013/11/27
 22 23  0  0  0  0  0  0  0  0999 V2000
   25.5586    4.6070    1.6885 N   0  0  0  0  0  0  0  0  0  0  0  0
   26.3151    3.7966    6.4682 N   0  0  0  0  0  0  0  0  0  0  0  0
   29.2817    4.2920   10.1366 N   0  0  0  0  0  0  0  0  0  0  0  0
   29.3753    1.9487    3.1666 O   0  0  0  0  0  0  0  0  0  0  0  0
   28.0029    2.2547    3.4283 C   0  0  2  0  0  0  0  0  0  0  0  0
   29.4039   -0.8103    6.0526 N   0  0  0  0  0  0  0  0  0  0  0  0
   27.5399    2.5928    1.0982 O   0  0  0  0  0  0  0  0  0  0  0  0
   27.4767    3.2348    2.3772 C   0  0  1  0  0  0  0  0  0  0  0  0
   28.1905    1.7799    5.8096 O   0  0  0  0  0  0  0  0  0  0  0  0
   26.0295    3.6295    2.6807 C   0  0  1  0  0  0  0  0  0  0  0  0
   30.0549    2.7825    6.8150 O   0  0  0  0  0  0  0  0  0  0  0  0
   25.9207    4.2425    4.0809 C   0  0  0  0  0  0  0  0  0  0  0  0
   29.0834    1.6740   10.2075 O   0  0  0  0  0  0  0  0  0  0  0  0
   26.4087    3.2260    5.1170 C   0  0  1  0  0  0  0  0  0  0  0  0
   29.5686   -0.8019    8.9174 O   0  0  0  0  0  0  0  0  0  0  0  0
   27.8562    2.8003    4.8540 C   0  0  2  0  0  0  0  0  0  0  0  0
   29.6036    1.6535    6.0442 C   0  0  1  0  0  0  0  0  0  0  0  0
   29.4629    2.8725    8.1267 C   0  0  2  0  0  0  0  0  0  0  0  0
   30.0247    4.0764    8.8861 C   0  0  0  0  0  0  0  0  0  0  0  0
   29.7510    1.6100    8.9435 C   0  0  2  0  0  0  0  0  0  0  0  0
   29.2442    0.3818    8.1858 C   0  0  1  0  0  0  0  0  0  0  0  0
   29.8980    0.3529    6.8016 C   0  0  1  0  0  0  0  0  0  0  0  0
  5  4  1  6  0  0  0
  5  8  1  0  0  0  0
  5 16  1  0  0  0  0
  8  7  1  6  0  0  0
  8 10  1  0  0  0  0
 10  1  1  6  0  0  0
 10 12  1  0  0  0  0
 11 18  1  0  0  0  0
 12 14  1  0  0  0  0
 14  2  1  1  0  0  0
 14 16  1  0  0  0  0
 16  9  1  1  0  0  0
 17  9  1  1  0  0  0
 17 11  1  0  0  0  0
 17 22  1  0  0  0  0
 18 19  1  1  0  0  0
 18 20  1  0  0  0  0
 19  3  1  0  0  0  0
 20 13  1  1  0  0  0
 20 21  1  0  0  0  0
 21 15  1  1  0  0  0
 21 22  1  0  0  0  0
 22  6  1  6  0  0  0
M  END
>  <CHROM.1>
82.61373388,72.66140023,171.43495852,28.38889953,2.35087716,5.91570153,2.39352729
1.01241923,-2.04079761

>  <Name>
2fcx_lig

>  <RI>
224

>  <Rbt.Current_Directory>
/home/itssahil/PROJECTS/Mol_Feturizer/New_Systems/rnas/2fcx

>  <Rbt.Executable>
rbdock ($Id: //depot/dev/client3/rdock/2013.1/src/exe/rbdock.cxx#4 $)

>  <Rbt.Library>
libRbt.so (2013.1, Build901 2013/11/27)

>  <Rbt.Parameter_File>
/export/apps/rDock/src/rDock_2013.1_src/data/scripts/dock_solv.prm

>  <Rbt.Receptor>
prm/blind_docking_60.prm

>  <SCORE>
-14.9965

>  <SCORE.INTER>
-14.7867

>  <SCORE.INTER.CONST>
1

>  <SCORE.INTER.POLAR>
-2.17061

>  <SCORE.INTER.ROT>
3

>  <SCORE.INTER.SOLV>
13.3563

>  <SCORE.INTER.VDW>
-12.6746

>  <SCORE.INTER.norm>
-0.672124

>  <SCORE.INTRA>
-0.209717

>  <SCORE.INTRA.DIHEDRAL>
-1.60843

>  <SCORE.INTRA.DIHEDRAL.0>
4.88619

>  <SCORE.INTRA.POLAR>
0

>  <SCORE.INTRA.POLAR.0>
0

>  <SCORE.INTRA.REPUL>
0

>  <SCORE.INTRA.REPUL.0>
0

>  <SCORE.INTRA.SOLV>
1.14709

>  <SCORE.INTRA.SOLV.lig_0>
-73.8187

>  <SCORE.INTRA.VDW>
0.0209569

>  <SCORE.INTRA.VDW.0>
-1.32335

>  <SCORE.INTRA.norm>
-0.0095326

>  <SCORE.RESTR>
0

>  <SCORE.RESTR.CAVITY>
0

>  <SCORE.RESTR.norm>
0

>  <SCORE.SYSTEM>
0

>  <SCORE.SYSTEM.CONST>
0

>  <SCORE.SYSTEM.DIHEDRAL>
0

>  <SCORE.SYSTEM.SOLV>
0

>  <SCORE.SYSTEM.norm>
0

>  <SCORE.heavy>
22

>  <SCORE.norm>
-0.681657

>  <RMSD>
12.298

$$$$
2fcx_lig
 OpenBabel11021811433D
libRbt.so/2013.1/901 2013/11/27
 22 23  0  0  0  0  0  0  0  0999 V2000
   25.3961    4.9179    1.0177 N   0  0  0  0  0  0  0  0  0  0  0  0
   28.1314    2.1563    4.0121 N   0  0  0  0  0  0  0  0  0  0  0  0
   25.4303   -1.1170    5.3026 N   0  0  0  0  0  0  0  0  0  0  0  0
   24.0289    4.1997    5.6474 O   0  0  0  0  0  0  0  0  0  0  0  0
   25.1543    4.3933    4.7862 C   0  0  2  0  0  0  0  0  0  0  0  0
   26.8137    4.1153    8.9232 N   0  0  0  0  0  0  0  0  0  0  0  0
   23.8995    5.8159    3.3165 O   0  0  0  0  0  0  0  0  0  0  0  0
   24.6795    4.6149    3.3482 C   0  0  1  0  0  0  0  0  0  0  0  0
   26.6678    3.1420    6.2265 O   0  0  0  0  0  0  0  0  0  0  0  0
   25.8721    4.7541    2.3991 C   0  0  1  0  0  0  0  0  0  0  0  0
   25.3669    1.3206    6.9208 O   0  0  0  0  0  0  0  0  0  0  0  0
   26.7703    3.5150    2.4776 C   0  0  0  0  0  0  0  0  0  0  0  0
   28.2687   -0.4768    8.3458 O   0  0  0  0  0  0  0  0  0  0  0  0
   27.2694    3.3427    3.9149 C   0  0  1  0  0  0  0  0  0  0  0  0
   28.1507    1.8180   10.0042 O   0  0  0  0  0  0  0  0  0  0  0  0
   26.1086    3.1986    4.9036 C   0  0  2  0  0  0  0  0  0  0  0  0
   25.7405    2.6777    7.2227 C   0  0  1  0  0  0  0  0  0  0  0  0
   26.4640    0.3860    6.9641 C   0  0  2  0  0  0  0  0  0  0  0  0
   25.9712   -1.0321    6.6675 C   0  0  0  0  0  0  0  0  0  0  0  0
   27.1278    0.3869    8.3438 C   0  0  2  0  0  0  0  0  0  0  0  0
   27.5878    1.8037    8.6910 C   0  0  1  0  0  0  0  0  0  0  0  0
   26.3832    2.7453    8.6134 C   0  0  1  0  0  0  0  0  0  0  0  0
  5  4  1  1  0  0  0
  5  8  1  0  0  0  0
  5 16  1  0  0  0  0
  8  7  1  1  0  0  0
  8 10  1  0  0  0  0
 10  1  1  6  0  0  0
 10 12  1  0  0  0  0
 11 18  1  0  0  0  0
 12 14  1  0  0  0  0
 14  2  1  6  0  0  0
 14 16  1  0  0  0  0
 16  9  1  1  0  0  0
 17  9  1  6  0  0  0
 17 11  1  0  0  0  0
 17 22  1  0  0  0  0
 18 19  1  1  0  0  0
 18 20  1  0  0  0  0
 19  3  1  0  0  0  0
 20 13  1  6  0  0  0
 20 21  1  0  0  0  0
 21 15  1  1  0  0  0
 21 22  1  0  0  0  0
 22  6  1  6  0  0  0
M  END
>  <CHROM.1>
74.24575213,63.45787245,63.34623788,26.23337414,2.57032544,5.85269858,-2.72909016
-1.27366833,1.03844007

>  <Name>
2fcx_lig

>  <RI>
224

>  <Rbt.Current_Directory>
/home/itssahil/PROJECTS/Mol_Feturizer/New_Systems/rnas/2fcx

>  <Rbt.Executable>
rbdock ($Id: //depot/dev/client3/rdock/2013.1/src/exe/rbdock.cxx#4 $)

>  <Rbt.Library>
libRbt.so (2013.1, Build901 2013/11/27)

>  <Rbt.Parameter_File>
/export/apps/rDock/src/rDock_2013.1_src/data/scripts/dock_solv.prm

>  <Rbt.Receptor>
prm/blind_docking_60.prm

>  <SCORE>
-11.4483

>  <SCORE.INTER>
-9.29596

>  <SCORE.INTER.CONST>
1

>  <SCORE.INTER.POLAR>
-0.894218

>  <SCORE.INTER.ROT>
3

>  <SCORE.INTER.SOLV>
13.7088

>  <SCORE.INTER.VDW>
-13.3862

>  <SCORE.INTER.norm>
-0.422543

>  <SCORE.INTRA>
-2.15231

>  <SCORE.INTRA.DIHEDRAL>
-3.82435

>  <SCORE.INTRA.DIHEDRAL.0>
4.88619

>  <SCORE.INTRA.POLAR>
0

>  <SCORE.INTRA.POLAR.0>
0

>  <SCORE.INTRA.REPUL>
0

>  <SCORE.INTRA.REPUL.0>
0

>  <SCORE.INTRA.SOLV>
-0.624413

>  <SCORE.INTRA.SOLV.lig_0>
-73.8187

>  <SCORE.INTRA.VDW>
0.0720654

>  <SCORE.INTRA.VDW.0>
-1.32335

>  <SCORE.INTRA.norm>
-0.0978325

>  <SCORE.RESTR>
0

>  <SCORE.RESTR.CAVITY>
0

>  <SCORE.RESTR.norm>
0

>  <SCORE.SYSTEM>
0

>  <SCORE.SYSTEM.CONST>
0

>  <SCORE.SYSTEM.DIHEDRAL>
0

>  <SCORE.SYSTEM.SOLV>
0

>  <SCORE.SYSTEM.norm>
0

>  <SCORE.heavy>
22

>  <SCORE.norm>
-0.520376

>  <RMSD>
12.305

$$$$
2fcx_lig
 OpenBabel11021811433D
libRbt.so/2013.1/901 2013/11/27
 22 23  0  0  0  0  0  0  0  0999 V2000
   33.1726   -3.5805    7.0084 N   0  0  0  0  0  0  0  0  0  0  0  0
   31.3916   -0.3837   10.2770 N   0  0  0  0  0  0  0  0  0  0  0  0
   28.1670    5.0898   10.5057 N   0  0  0  0  0  0  0  0  0  0  0  0
   29.4219   -0.6857    5.8375 O   0  0  0  0  0  0  0  0  0  0  0  0
   30.6515   -0.7552    6.5647 C   0  0  2  0  0  0  0  0  0  0  0  0
   27.9165   -0.7835    9.3176 N   0  0  0  0  0  0  0  0  0  0  0  0
   31.6168   -2.2620    4.9659 O   0  0  0  0  0  0  0  0  0  0  0  0
   31.3045   -2.1238    6.3571 C   0  0  1  0  0  0  0  0  0  0  0  0
   29.9545    0.9045    8.2050 O   0  0  0  0  0  0  0  0  0  0  0  0
   32.5869   -2.2434    7.1838 C   0  0  1  0  0  0  0  0  0  0  0  0
   29.4235    2.6037    9.7290 O   0  0  0  0  0  0  0  0  0  0  0  0
   32.2927   -2.0146    8.6702 C   0  0  0  0  0  0  0  0  0  0  0  0
   26.3694    3.5872    7.8887 O   0  0  0  0  0  0  0  0  0  0  0  0
   31.6841   -0.6218    8.8565 C   0  0  1  0  0  0  0  0  0  0  0  0
   25.7159    0.9549    8.7094 O   0  0  0  0  0  0  0  0  0  0  0  0
   30.3951   -0.4544    8.0465 C   0  0  2  0  0  0  0  0  0  0  0  0
   29.4040    1.1819    9.5042 C   0  0  1  0  0  0  0  0  0  0  0  0
   28.6084    3.3553    8.8073 C   0  0  2  0  0  0  0  0  0  0  0  0
   28.6597    4.8478    9.1414 C   0  0  0  0  0  0  0  0  0  0  0  0
   27.1488    2.8971    8.8704 C   0  0  2  0  0  0  0  0  0  0  0  0
   27.0697    1.3957    8.5889 C   0  0  1  0  0  0  0  0  0  0  0  0
   27.9647    0.6595    9.5893 C   0  0  1  0  0  0  0  0  0  0  0  0
  5  4  1  6  0  0  0
  5  8  1  0  0  0  0
  5 16  1  0  0  0  0
  8  7  1  6  0  0  0
  8 10  1  0  0  0  0
 10  1  1  1  0  0  0
 10 12  1  0  0  0  0
 11 18  1  0  0  0  0
 12 14  1  0  0  0  0
 14  2  1  1  0  0  0
 14 16  1  0  0  0  0
 16  9  1  6  0  0  0
 17  9  1  6  0  0  0
 17 11  1  0  0  0  0
 17 22  1  0  0  0  0
 18 19  1  1  0  0  0
 18 20  1  0  0  0  0
 19  3  1  0  0  0  0
 20 13  1  6  0  0  0
 20 21  1  0  0  0  0
 21 15  1  1  0  0  0
 21 22  1  0  0  0  0
 22  6  1  6  0  0  0
M  END
>  <CHROM.1>
166.60956220,160.42121004,-59.81081526,29.55210815,0.54474926,8.27451181
-0.85239242,-0.43093944,0.73821693

>  <Name>
2fcx_lig

>  <RI>
2.63278e+07

>  <Rbt.Current_Directory>
/home/itssahil/PROJECTS/Mol_Feturizer/New_Systems/rnas/2fcx

>  <Rbt.Executable>
rbdock ($Id: //depot/dev/client3/rdock/2013.1/src/exe/rbdock.cxx#4 $)

>  <Rbt.Library>
libRbt.so (2013.1, Build901 2013/11/27)

>  <Rbt.Parameter_File>
/export/apps/rDock/src/rDock_2013.1_src/data/scripts/dock_solv.prm

>  <Rbt.Receptor>
prm/blind_docking_40.prm

>  <SCORE>
-15.8469

>  <SCORE.INTER>
-18.1867

>  <SCORE.INTER.CONST>
1

>  <SCORE.INTER.POLAR>
-2.79168

>  <SCORE.INTER.ROT>
3

>  <SCORE.INTER.SOLV>
12.1978

>  <SCORE.INTER.VDW>
-12.4848

>  <SCORE.INTER.norm>
-0.826666

>  <SCORE.INTRA>
2.33974

>  <SCORE.INTRA.DIHEDRAL>
-2.29737

>  <SCORE.INTRA.DIHEDRAL.0>
4.88619

>  <SCORE.INTRA.POLAR>
0

>  <SCORE.INTRA.POLAR.0>
0

>  <SCORE.INTRA.REPUL>
0

>  <SCORE.INTRA.REPUL.0>
0

>  <SCORE.INTRA.SOLV>
4.50709

>  <SCORE.INTRA.SOLV.lig_0>
-73.8187

>  <SCORE.INTRA.VDW>
1.23488

>  <SCORE.INTRA.VDW.0>
-1.32335

>  <SCORE.INTRA.norm>
0.106352

>  <SCORE.RESTR>
0

>  <SCORE.RESTR.CAVITY>
0

>  <SCORE.RESTR.norm>
0

>  <SCORE.SYSTEM>
0

>  <SCORE.SYSTEM.CONST>
0

>  <SCORE.SYSTEM.DIHEDRAL>
0

>  <SCORE.SYSTEM.SOLV>
0

>  <SCORE.SYSTEM.norm>
0

>  <SCORE.heavy>
22

>  <SCORE.norm>
-0.720315

>  <RMSD>
12.310

$$$$
2fcx_lig
 OpenBabel11021811433D
libRbt.so/2013.1/901 2013/11/27
 22 23  0  0  0  0  0  0  0  0999 V2000
   27.3455    4.3371    1.6943 N   0  0  0  0  0  0  0  0  0  0  0  0
   26.9816    4.0532    6.5792 N   0  0  0  0  0  0  0  0  0  0  0  0
   31.3243    0.6280    9.4443 N   0  0  0  0  0  0  0  0  0  0  0  0
   28.5886    0.2344    4.0269 O   0  0  0  0  0  0  0  0  0  0  0  0
   27.6687    1.3294    4.0148 C   0  0  2  0  0  0  0  0  0  0  0  0
   26.2620   -1.3849    6.9343 N   0  0  0  0  0  0  0  0  0  0  0  0
   27.7373    1.4784    1.6208 O   0  0  0  0  0  0  0  0  0  0  0  0
   27.9535    2.2376    2.8162 C   0  0  1  0  0  0  0  0  0  0  0  0
   27.2951    1.2436    6.4198 O   0  0  0  0  0  0  0  0  0  0  0  0
   27.0245    3.4538    2.8250 C   0  0  1  0  0  0  0  0  0  0  0  0
   29.3505    0.6583    7.3814 O   0  0  0  0  0  0  0  0  0  0  0  0
   27.1754    4.2372    4.1333 C   0  0  0  0  0  0  0  0  0  0  0  0
   28.0399    0.8915   10.8324 O   0  0  0  0  0  0  0  0  0  0  0  0
   26.8399    3.3205    5.3130 C   0  0  1  0  0  0  0  0  0  0  0  0
   26.5168   -1.2586    9.7897 O   0  0  0  0  0  0  0  0  0  0  0  0
   27.7462    2.0863    5.3463 C   0  0  2  0  0  0  0  0  0  0  0  0
   28.1854    0.1509    6.7052 C   0  0  1  0  0  0  0  0  0  0  0  0
   29.0712    1.2595    8.6618 C   0  0  2  0  0  0  0  0  0  0  0  0
   30.3661    1.7368    9.3231 C   0  0  0  0  0  0  0  0  0  0  0  0
   28.3923    0.2571    9.5992 C   0  0  2  0  0  0  0  0  0  0  0  0
   27.1177   -0.2766    8.9434 C   0  0  1  0  0  0  0  0  0  0  0  0
   27.4804   -0.8869    7.5870 C   0  0  1  0  0  0  0  0  0  0  0  0
  5  4  1  1  0  0  0
  5  8  1  0  0  0  0
  5 16  1  0  0  0  0
  8  7  1  6  0  0  0
  8 10  1  0  0  0  0
 10  1  1  6  0  0  0
 10 12  1  0  0  0  0
 11 18  1  0  0  0  0
 12 14  1  0  0  0  0
 14  2  1  1  0  0  0
 14 16  1  0  0  0  0
 16  9  1  1  0  0  0
 17  9  1  1  0  0  0
 17 11  1  0  0  0  0
 17 22  1  0  0  0  0
 18 19  1  1  0  0  0
 18 20  1  0  0  0  0
 19  3  1  0  0  0  0
 20 13  1  1  0  0  0
 20 21  1  0  0  0  0
 21 15  1  1  0  0  0
 21 22  1  0  0  0  0
 22  6  1  6  0  0  0
M  END
>  <CHROM.1>
69.00299519,73.90847094,-55.98966928,27.93570475,1.32476060,6.38123784,-1.86980988
1.08468120,2.23880256

>  <Name>
2fcx_lig

>  <RI>
224

>  <Rbt.Current_Directory>
/home/itssahil/PROJECTS/Mol_Feturizer/New_Systems/rnas/2fcx

>  <Rbt.Executable>
rbdock ($Id: //depot/dev/client3/rdock/2013.1/src/exe/rbdock.cxx#4 $)

>  <Rbt.Library>
libRbt.so (2013.1, Build901 2013/11/27)

>  <Rbt.Parameter_File>
/export/apps/rDock/src/rDock_2013.1_src/data/scripts/dock_solv.prm

>  <Rbt.Receptor>
prm/blind_docking_100.prm

>  <SCORE>
-11.2815

>  <SCORE.INTER>
-10.5107

>  <SCORE.INTER.CONST>
1

>  <SCORE.INTER.POLAR>
-1.20721

>  <SCORE.INTER.ROT>
3

>  <SCORE.INTER.SOLV>
12.8473

>  <SCORE.INTER.VDW>
-12.8656

>  <SCORE.INTER.norm>
-0.47776

>  <SCORE.INTRA>
-0.810487

>  <SCORE.INTRA.DIHEDRAL>
-3.51638

>  <SCORE.INTRA.DIHEDRAL.0>
4.88619

>  <SCORE.INTRA.POLAR>
0

>  <SCORE.INTRA.POLAR.0>
0

>  <SCORE.INTRA.REPUL>
0

>  <SCORE.INTRA.REPUL.0>
0

>  <SCORE.INTRA.SOLV>
0.76984

>  <SCORE.INTRA.SOLV.lig_0>
-73.8187

>  <SCORE.INTRA.VDW>
0.562784

>  <SCORE.INTRA.VDW.0>
-1.32335

>  <SCORE.INTRA.norm>
-0.0368403

>  <SCORE.RESTR>
0.0397494

>  <SCORE.RESTR.CAVITY>
0.0397494

>  <SCORE.RESTR.norm>
0.00180679

>  <SCORE.SYSTEM>
0

>  <SCORE.SYSTEM.CONST>
0

>  <SCORE.SYSTEM.DIHEDRAL>
0

>  <SCORE.SYSTEM.SOLV>
0

>  <SCORE.SYSTEM.norm>
0

>  <SCORE.heavy>
22

>  <SCORE.norm>
-0.512794

>  <RMSD>
12.318

$$$$
2fcx_lig
 OpenBabel11021811433D
libRbt.so/2013.1/901 2013/11/27
 22 23  0  0  0  0  0  0  0  0999 V2000
   29.9887   -3.4197   12.6102 N   0  0  0  0  0  0  0  0  0  0  0  0
   25.9916   -1.6955   10.3465 N   0  0  0  0  0  0  0  0  0  0  0  0
   26.3231   -1.4178    5.9912 N   0  0  0  0  0  0  0  0  0  0  0  0
   30.2507    0.6091    9.8681 O   0  0  0  0  0  0  0  0  0  0  0  0
   29.4273   -0.1224   10.7805 C   0  0  2  0  0  0  0  0  0  0  0  0
   27.5839    3.5952    9.9088 N   0  0  0  0  0  0  0  0  0  0  0  0
   31.3339   -0.9439   11.9839 O   0  0  0  0  0  0  0  0  0  0  0  0
   30.1683   -1.3696   11.2682 C   0  0  1  0  0  0  0  0  0  0  0  0
   27.3523    0.7348    9.8368 O   0  0  0  0  0  0  0  0  0  0  0  0
   29.2769   -2.2033   12.1914 C   0  0  1  0  0  0  0  0  0  0  0  0
   27.4566    0.7537    7.4957 O   0  0  0  0  0  0  0  0  0  0  0  0
   27.9818   -2.6005   11.4750 C   0  0  0  0  0  0  0  0  0  0  0  0
   23.9661    1.9251    7.1410 O   0  0  0  0  0  0  0  0  0  0  0  0
   27.2369   -1.3356   11.0392 C   0  0  1  0  0  0  0  0  0  0  0  0
   25.1775    4.1326    8.4409 O   0  0  0  0  0  0  0  0  0  0  0  0
   28.0913   -0.4671   10.1111 C   0  0  2  0  0  0  0  0  0  0  0  0
   27.8365    1.4583    8.6923 C   0  0  1  0  0  0  0  0  0  0  0  0
   26.0315    0.6527    7.3010 C   0  0  2  0  0  0  0  0  0  0  0  0
   25.7204   -0.0765    5.9921 C   0  0  0  0  0  0  0  0  0  0  0  0
   25.3886    2.0411    7.2439 C   0  0  2  0  0  0  0  0  0  0  0  0
   25.7239    2.8147    8.5202 C   0  0  1  0  0  0  0  0  0  0  0  0
   27.2460    2.8735    8.6747 C   0  0  1  0  0  0  0  0  0  0  0  0
  5  4  1  6  0  0  0
  5  8  1  0  0  0  0
  5 16  1  0  0  0  0
  8  7  1  1  0  0  0
  8 10  1  0  0  0  0
 10  1  1  6  0  0  0
 10 12  1  0  0  0  0
 11 18  1  0  0  0  0
 12 14  1  0  0  0  0
 14  2  1  6  0  0  0
 14 16  1  0  0  0  0
 16  9  1  1  0  0  0
 17  9  1  1  0  0  0
 17 11  1  0  0  0  0
 17 22  1  0  0  0  0
 18 19  1  6  0  0  0
 18 20  1  0  0  0  0
 19  3  1  0  0  0  0
 20 13  1  1  0  0  0
 20 21  1  0  0  0  0
 21 15  1  6  0  0  0
 21 22  1  0  0  0  0
 22  6  1  1  0  0  0
M  END
>  <CHROM.1>
76.83680090,73.54922617,58.03912444,27.52382540,0.30042040,9.38870907,0.60596688
0.77830120,3.10402773

>  <Name>
2fcx_lig

>  <RI>
224

>  <Rbt.Current_Directory>
/home/itssahil/PROJECTS/Mol_Feturizer/New_Systems/rnas/2fcx

>  <Rbt.Executable>
rbdock ($Id: //depot/dev/client3/rdock/2013.1/src/exe/rbdock.cxx#4 $)

>  <Rbt.Library>
libRbt.so (2013.1, Build901 2013/11/27)

>  <Rbt.Parameter_File>
/export/apps/rDock/src/rDock_2013.1_src/data/scripts/dock_solv.prm

>  <Rbt.Receptor>
prm/blind_docking_60.prm

>  <SCORE>
-8.02569

>  <SCORE.INTER>
-6.46214

>  <SCORE.INTER.CONST>
1

>  <SCORE.INTER.POLAR>
-0.512042

>  <SCORE.INTER.ROT>
3

>  <SCORE.INTER.SOLV>
16.4994

>  <SCORE.INTER.VDW>
-13.7011

>  <SCORE.INTER.norm>
-0.293734

>  <SCORE.INTRA>
-1.56387

>  <SCORE.INTRA.DIHEDRAL>
-2.68383

>  <SCORE.INTRA.DIHEDRAL.0>
4.88619

>  <SCORE.INTRA.POLAR>
0

>  <SCORE.INTRA.POLAR.0>
0

>  <SCORE.INTRA.REPUL>
0

>  <SCORE.INTRA.REPUL.0>
0

>  <SCORE.INTRA.SOLV>
-0.317466

>  <SCORE.INTRA.SOLV.lig_0>
-73.8187

>  <SCORE.INTRA.VDW>
-0.0632187

>  <SCORE.INTRA.VDW.0>
-1.32335

>  <SCORE.INTRA.norm>
-0.071085

>  <SCORE.RESTR>
0.000318468

>  <SCORE.RESTR.CAVITY>
0.000318468

>  <SCORE.RESTR.norm>
1.44758e-05

>  <SCORE.SYSTEM>
0

>  <SCORE.SYSTEM.CONST>
0

>  <SCORE.SYSTEM.DIHEDRAL>
0

>  <SCORE.SYSTEM.SOLV>
0

>  <SCORE.SYSTEM.norm>
0

>  <SCORE.heavy>
22

>  <SCORE.norm>
-0.364804

>  <RMSD>
12.333

$$$$
2fcx_lig
 OpenBabel11021811433D
libRbt.so/2013.1/901 2013/11/27
 22 23  0  0  0  0  0  0  0  0999 V2000
   27.1223    4.3285    2.4278 N   0  0  0  0  0  0  0  0  0  0  0  0
   25.5839    3.0343    6.9036 N   0  0  0  0  0  0  0  0  0  0  0  0
   29.7395    2.8089    9.8574 N   0  0  0  0  0  0  0  0  0  0  0  0
   28.8382    0.2840    4.5530 O   0  0  0  0  0  0  0  0  0  0  0  0
   27.6783    1.1033    4.3833 C   0  0  2  0  0  0  0  0  0  0  0  0
   26.0799   -2.1393    7.5407 N   0  0  0  0  0  0  0  0  0  0  0  0
   28.3283    1.7202    2.1573 O   0  0  0  0  0  0  0  0  0  0  0  0
   27.9934    2.2657    3.4388 C   0  0  1  0  0  0  0  0  0  0  0  0
   26.7263    0.4700    6.5336 O   0  0  0  0  0  0  0  0  0  0  0  0
   26.7846    3.1939    3.2997 C   0  0  1  0  0  0  0  0  0  0  0  0
   28.9321    0.2518    7.2944 O   0  0  0  0  0  0  0  0  0  0  0  0
   26.3527    3.7250    4.6708 C   0  0  0  0  0  0  0  0  0  0  0  0
   28.0001    0.8784   10.8186 O   0  0  0  0  0  0  0  0  0  0  0  0
   25.9984    2.5456    5.5809 C   0  0  1  0  0  0  0  0  0  0  0  0
   26.6377   -1.5502   10.2932 O   0  0  0  0  0  0  0  0  0  0  0  0
   27.1805    1.5868    5.7509 C   0  0  2  0  0  0  0  0  0  0  0  0
   27.7674   -0.4694    6.8521 C   0  0  1  0  0  0  0  0  0  0  0  0
   28.7288    1.0112    8.5030 C   0  0  2  0  0  0  0  0  0  0  0  0
   30.0234    1.7137    8.9180 C   0  0  0  0  0  0  0  0  0  0  0  0
   28.2847    0.1011    9.6514 C   0  0  2  0  0  0  0  0  0  0  0  0
   27.0175   -0.6540    9.2471 C   0  0  1  0  0  0  0  0  0  0  0  0
   27.2955   -1.4256    7.9543 C   0  0  1  0  0  0  0  0  0  0  0  0
  5  4  1  1  0  0  0
  5  8  1  0  0  0  0
  5 16  1  0  0  0  0
  8  7  1  6  0  0  0
  8 10  1  0  0  0  0
 10  1  1  6  0  0  0
 10 12  1  0  0  0  0
 11 18  1  0  0  0  0
 12 14  1  0  0  0  0
 14  2  1  1  0  0  0
 14 16  1  0  0  0  0
 16  9  1  1  0  0  0
 17  9  1  1  0  0  0
 17 11  1  0  0  0  0
 17 22  1  0  0  0  0
 18 19  1  1  0  0  0
 18 20  1  0  0  0  0
 19  3  1  0  0  0  0
 20 13  1  1  0  0  0
 20 21  1  0  0  0  0
 21 15  1  1  0  0  0
 21 22  1  0  0  0  0
 22  6  1  6  0  0  0
M  END
>  <CHROM.1>
63.77050444,45.44223130,161.55996940,27.61127956,1.10291128,6.68200870,-1.78262913
1.18349448,2.20674352

>  <Name>
2fcx_lig

>  <RI>
224

>  <Rbt.Current_Directory>
/home/itssahil/PROJECTS/Mol_Feturizer/New_Systems/rnas/2fcx

>  <Rbt.Executable>
rbdock ($Id: //depot/dev/client3/rdock/2013.1/src/exe/rbdock.cxx#4 $)

>  <Rbt.Library>
libRbt.so (2013.1, Build901 2013/11/27)

>  <Rbt.Parameter_File>
/export/apps/rDock/src/rDock_2013.1_src/data/scripts/dock_solv.prm

>  <Rbt.Receptor>
prm/blind_docking_100.prm

>  <SCORE>
-12.9242

>  <SCORE.INTER>
-13.0536

>  <SCORE.INTER.CONST>
1

>  <SCORE.INTER.POLAR>
-2.08773

>  <SCORE.INTER.ROT>
3

>  <SCORE.INTER.SOLV>
15.9493

>  <SCORE.INTER.VDW>
-12.6597

>  <SCORE.INTER.norm>
-0.593345

>  <SCORE.INTRA>
0.129389

>  <SCORE.INTRA.DIHEDRAL>
-2.66825

>  <SCORE.INTRA.DIHEDRAL.0>
4.88619

>  <SCORE.INTRA.POLAR>
0

>  <SCORE.INTRA.POLAR.0>
0

>  <SCORE.INTRA.REPUL>
0

>  <SCORE.INTRA.REPUL.0>
0

>  <SCORE.INTRA.SOLV>
-0.0370275

>  <SCORE.INTRA.SOLV.lig_0>
-73.8187

>  <SCORE.INTRA.VDW>
1.48203

>  <SCORE.INTRA.VDW.0>
-1.32335

>  <SCORE.INTRA.norm>
0.00588134

>  <SCORE.RESTR>
0

>  <SCORE.RESTR.CAVITY>
0

>  <SCORE.RESTR.norm>
0

>  <SCORE.SYSTEM>
0

>  <SCORE.SYSTEM.CONST>
0

>  <SCORE.SYSTEM.DIHEDRAL>
0

>  <SCORE.SYSTEM.SOLV>
0

>  <SCORE.SYSTEM.norm>
0

>  <SCORE.heavy>
22

>  <SCORE.norm>
-0.587463

>  <RMSD>
12.348

$$$$
2fcx_lig
 OpenBabel11021811433D
libRbt.so/2013.1/901 2013/11/27
 22 23  0  0  0  0  0  0  0  0999 V2000
   26.4978   -3.6208    9.4114 N   0  0  0  0  0  0  0  0  0  0  0  0
   28.0834    0.6873   11.1440 N   0  0  0  0  0  0  0  0  0  0  0  0
   26.1578    3.6425    4.6976 N   0  0  0  0  0  0  0  0  0  0  0  0
   25.1278    0.5507    7.2806 O   0  0  0  0  0  0  0  0  0  0  0  0
   26.2105   -0.1183    7.9330 C   0  0  2  0  0  0  0  0  0  0  0  0
   29.8466    2.0898    9.8402 N   0  0  0  0  0  0  0  0  0  0  0  0
   25.5389   -2.2500    7.0593 O   0  0  0  0  0  0  0  0  0  0  0  0
   25.8042   -1.5521    8.2818 C   0  0  1  0  0  0  0  0  0  0  0  0
   27.1852    1.9491    8.7736 O   0  0  0  0  0  0  0  0  0  0  0  0
   26.9251   -2.2628    9.0438 C   0  0  1  0  0  0  0  0  0  0  0  0
   27.9923    2.3869    6.6175 O   0  0  0  0  0  0  0  0  0  0  0  0
   27.2869   -1.4883   10.3157 C   0  0  0  0  0  0  0  0  0  0  0  0
   28.4729    5.9899    7.3024 O   0  0  0  0  0  0  0  0  0  0  0  0
   27.7343   -0.0739    9.9361 C   0  0  1  0  0  0  0  0  0  0  0  0
   30.3303    4.8178    9.0930 O   0  0  0  0  0  0  0  0  0  0  0  0
   26.6424    0.6786    9.1700 C   0  0  2  0  0  0  0  0  0  0  0  0
   28.3272    1.8404    7.9065 C   0  0  1  0  0  0  0  0  0  0  0  0
   27.6708    3.7922    6.6409 C   0  0  2  0  0  0  0  0  0  0  0  0
   27.3641    4.2948    5.2284 C   0  0  0  0  0  0  0  0  0  0  0  0
   28.8379    4.6100    7.2008 C   0  0  2  0  0  0  0  0  0  0  0  0
   29.2012    4.0974    8.5954 C   0  0  1  0  0  0  0  0  0  0  0  0
   29.5168    2.6022    8.5035 C   0  0  1  0  0  0  0  0  0  0  0  0
  5  4  1  1  0  0  0
  5  8  1  0  0  0  0
  5 16  1  0  0  0  0
  8  7  1  6  0  0  0
  8 10  1  0  0  0  0
 10  1  1  1  0  0  0
 10 12  1  0  0  0  0
 11 18  1  0  0  0  0
 12 14  1  0  0  0  0
 14  2  1  1  0  0  0
 14 16  1  0  0  0  0
 16  9  1  6  0  0  0
 17  9  1  1  0  0  0
 17 11  1  0  0  0  0
 17 22  1  0  0  0  0
 18 19  1  6  0  0  0
 18 20  1  0  0  0  0
 19  3  1  0  0  0  0
 20 13  1  1  0  0  0
 20 21  1  0  0  0  0
 21 15  1  6  0  0  0
 21 22  1  0  0  0  0
 22  6  1  1  0  0  0
M  END
>  <CHROM.1>
-59.33657820,114.85384433,64.43329356,27.57095770,1.51776084,8.15717914,-2.06498493
-0.83557718,-0.63745563

>  <Name>
2fcx_lig

>  <RI>
224

>  <Rbt.Current_Directory>
/home/itssahil/PROJECTS/Mol_Feturizer/New_Systems/rnas/2fcx

>  <Rbt.Executable>
rbdock ($Id: //depot/dev/client3/rdock/2013.1/src/exe/rbdock.cxx#4 $)

>  <Rbt.Library>
libRbt.so (2013.1, Build901 2013/11/27)

>  <Rbt.Parameter_File>
/export/apps/rDock/src/rDock_2013.1_src/data/scripts/dock_solv.prm

>  <Rbt.Receptor>
prm/blind_docking_100.prm

>  <SCORE>
-5.92427

>  <SCORE.INTER>
-10.0934

>  <SCORE.INTER.CONST>
1

>  <SCORE.INTER.POLAR>
-2.07353

>  <SCORE.INTER.ROT>
3

>  <SCORE.INTER.SOLV>
18.063

>  <SCORE.INTER.VDW>
-11.4382

>  <SCORE.INTER.norm>
-0.458789

>  <SCORE.INTRA>
3.74149

>  <SCORE.INTRA.DIHEDRAL>
2.26021

>  <SCORE.INTRA.DIHEDRAL.0>
4.88619

>  <SCORE.INTRA.POLAR>
0

>  <SCORE.INTRA.POLAR.0>
0

>  <SCORE.INTRA.REPUL>
0

>  <SCORE.INTRA.REPUL.0>
0

>  <SCORE.INTRA.SOLV>
3.18122

>  <SCORE.INTRA.SOLV.lig_0>
-73.8187

>  <SCORE.INTRA.VDW>
1.02077

>  <SCORE.INTRA.VDW.0>
-1.32335

>  <SCORE.INTRA.norm>
0.170068

>  <SCORE.RESTR>
0.427596

>  <SCORE.RESTR.CAVITY>
0.427596

>  <SCORE.RESTR.norm>
0.0194362

>  <SCORE.SYSTEM>
0

>  <SCORE.SYSTEM.CONST>
0

>  <SCORE.SYSTEM.DIHEDRAL>
0

>  <SCORE.SYSTEM.SOLV>
0

>  <SCORE.SYSTEM.norm>
0

>  <SCORE.heavy>
22

>  <SCORE.norm>
-0.269285

>  <RMSD>
12.351

$$$$
2fcx_lig
 OpenBabel11021811433D
libRbt.so/2013.1/901 2013/11/27
 22 23  0  0  0  0  0  0  0  0999 V2000
   28.1374   -2.6187    8.4517 N   0  0  0  0  0  0  0  0  0  0  0  0
   29.6005    1.3717    5.9999 N   0  0  0  0  0  0  0  0  0  0  0  0
   28.6468    3.8659    9.7086 N   0  0  0  0  0  0  0  0  0  0  0  0
   25.0993    1.1509    7.8359 O   0  0  0  0  0  0  0  0  0  0  0  0
   26.1358    0.3827    7.2186 C   0  0  2  0  0  0  0  0  0  0  0  0
   25.4188    3.8988    4.0403 N   0  0  0  0  0  0  0  0  0  0  0  0
   25.4299   -1.6265    8.3245 O   0  0  0  0  0  0  0  0  0  0  0  0
   26.5579   -0.7625    8.1421 C   0  0  1  0  0  0  0  0  0  0  0  0
   26.9100    2.2414    5.8485 O   0  0  0  0  0  0  0  0  0  0  0  0
   27.7153   -1.5544    7.5293 C   0  0  1  0  0  0  0  0  0  0  0  0
   26.6094    3.7986    7.5738 O   0  0  0  0  0  0  0  0  0  0  0  0
   28.9069   -0.6337    7.2452 C   0  0  0  0  0  0  0  0  0  0  0  0
   29.1503    6.1145    6.2094 O   0  0  0  0  0  0  0  0  0  0  0  0
   28.4710    0.4750    6.2831 C   0  0  1  0  0  0  0  0  0  0  0  0
   27.1884    6.1544    4.1651 O   0  0  0  0  0  0  0  0  0  0  0  0
   27.3121    1.2970    6.8548 C   0  0  2  0  0  0  0  0  0  0  0  0
   26.0558    3.2846    6.3483 C   0  0  1  0  0  0  0  0  0  0  0  0
   27.9041    4.4144    7.4205 C   0  0  2  0  0  0  0  0  0  0  0  0
   28.3982    4.9626    8.7611 C   0  0  0  0  0  0  0  0  0  0  0  0
   27.8433    5.5713    6.4195 C   0  0  2  0  0  0  0  0  0  0  0  0
   27.3049    5.0638    5.0808 C   0  0  1  0  0  0  0  0  0  0  0  0
   25.9397    4.4115    5.3147 C   0  0  1  0  0  0  0  0  0  0  0  0
  5  4  1  1  0  0  0
  5  8  1  0  0  0  0
  5 16  1  0  0  0  0
  8  7  1  6  0  0  0
  8 10  1  0  0  0  0
 10  1  1  1  0  0  0
 10 12  1  0  0  0  0
 11 18  1  0  0  0  0
 12 14  1  0  0  0  0
 14  2  1  1  0  0  0
 14 16  1  0  0  0  0
 16  9  1  6  0  0  0
 17  9  1  6  0  0  0
 17 11  1  0  0  0  0
 17 22  1  0  0  0  0
 18 19  1  1  0  0  0
 18 20  1  0  0  0  0
 19  3  1  0  0  0  0
 20 13  1  6  0  0  0
 20 21  1  0  0  0  0
 21 15  1  6  0  0  0
 21 22  1  0  0  0  0
 22  6  1  6  0  0  0
M  END
>  <CHROM.1>
73.62834965,46.24166137,65.88806077,27.28999012,2.35716544,6.85223085,-1.63508827
-0.70536252,-0.33993162

>  <Name>
2fcx_lig

>  <RI>
2.63278e+07

>  <Rbt.Current_Directory>
/home/itssahil/PROJECTS/Mol_Feturizer/New_Systems/rnas/2fcx

>  <Rbt.Executable>
rbdock ($Id: //depot/dev/client3/rdock/2013.1/src/exe/rbdock.cxx#4 $)

>  <Rbt.Library>
libRbt.so (2013.1, Build901 2013/11/27)

>  <Rbt.Parameter_File>
/export/apps/rDock/src/rDock_2013.1_src/data/scripts/dock_solv.prm

>  <Rbt.Receptor>
prm/blind_docking_40.prm

>  <SCORE>
-10.6

>  <SCORE.INTER>
-9.31389

>  <SCORE.INTER.CONST>
1

>  <SCORE.INTER.POLAR>
-1.61891

>  <SCORE.INTER.ROT>
3

>  <SCORE.INTER.SOLV>
11.7163

>  <SCORE.INTER.VDW>
-10.3183

>  <SCORE.INTER.norm>
-0.423359

>  <SCORE.INTRA>
-1.28609

>  <SCORE.INTRA.DIHEDRAL>
-2.98419

>  <SCORE.INTRA.DIHEDRAL.0>
4.88619

>  <SCORE.INTRA.POLAR>
0

>  <SCORE.INTRA.POLAR.0>
0

>  <SCORE.INTRA.REPUL>
0

>  <SCORE.INTRA.REPUL.0>
0

>  <SCORE.INTRA.SOLV>
-0.313331

>  <SCORE.INTRA.SOLV.lig_0>
-73.8187

>  <SCORE.INTRA.VDW>
0.362676

>  <SCORE.INTRA.VDW.0>
-1.32335

>  <SCORE.INTRA.norm>
-0.0584585

>  <SCORE.RESTR>
0

>  <SCORE.RESTR.CAVITY>
0

>  <SCORE.RESTR.norm>
0

>  <SCORE.SYSTEM>
0

>  <SCORE.SYSTEM.CONST>
0

>  <SCORE.SYSTEM.DIHEDRAL>
0

>  <SCORE.SYSTEM.SOLV>
0

>  <SCORE.SYSTEM.norm>
0

>  <SCORE.heavy>
22

>  <SCORE.norm>
-0.481817

>  <RMSD>
12.404

$$$$
2fcx_lig
 OpenBabel11021811433D
libRbt.so/2013.1/901 2013/11/27
 22 23  0  0  0  0  0  0  0  0999 V2000
   27.4999   -2.1667   12.9736 N   0  0  0  0  0  0  0  0  0  0  0  0
   30.5908    0.4495   10.2030 N   0  0  0  0  0  0  0  0  0  0  0  0
   29.0248    4.3577   10.1358 N   0  0  0  0  0  0  0  0  0  0  0  0
   25.9736   -0.1625    8.7936 O   0  0  0  0  0  0  0  0  0  0  0  0
   27.0797   -0.7982    9.4401 C   0  0  2  0  0  0  0  0  0  0  0  0
   28.3866    0.1434    5.2233 N   0  0  0  0  0  0  0  0  0  0  0  0
   25.6295   -2.1666   10.7752 O   0  0  0  0  0  0  0  0  0  0  0  0
   26.6891   -1.2066   10.8624 C   0  0  1  0  0  0  0  0  0  0  0  0
   28.7367    0.3404    8.0657 O   0  0  0  0  0  0  0  0  0  0  0  0
   27.8815   -1.8256   11.5953 C   0  0  1  0  0  0  0  0  0  0  0  0
   28.0857    2.5912    8.0217 O   0  0  0  0  0  0  0  0  0  0  0  0
   29.0606   -0.8473   11.6278 C   0  0  0  0  0  0  0  0  0  0  0  0
   31.3332    3.7207    6.6580 O   0  0  0  0  0  0  0  0  0  0  0  0
   29.4619   -0.4915   10.1936 C   0  0  1  0  0  0  0  0  0  0  0  0
   30.3521    2.1182    4.5368 O   0  0  0  0  0  0  0  0  0  0  0  0
   28.2978    0.1332    9.4186 C   0  0  2  0  0  0  0  0  0  0  0  0
   27.9624    1.3215    7.3546 C   0  0  1  0  0  0  0  0  0  0  0  0
   29.4287    3.1156    8.0426 C   0  0  2  0  0  0  0  0  0  0  0  0
   29.4601    4.4792    8.7365 C   0  0  0  0  0  0  0  0  0  0  0  0
   29.9705    3.2857    6.6207 C   0  0  2  0  0  0  0  0  0  0  0  0
   29.9057    1.9472    5.8833 C   0  0  1  0  0  0  0  0  0  0  0  0
   28.4613    1.4403    5.9093 C   0  0  1  0  0  0  0  0  0  0  0  0
  5  4  1  1  0  0  0
  5  8  1  0  0  0  0
  5 16  1  0  0  0  0
  8  7  1  6  0  0  0
  8 10  1  0  0  0  0
 10  1  1  1  0  0  0
 10 12  1  0  0  0  0
 11 18  1  0  0  0  0
 12 14  1  0  0  0  0
 14  2  1  1  0  0  0
 14 16  1  0  0  0  0
 16  9  1  6  0  0  0
 17  9  1  1  0  0  0
 17 11  1  0  0  0  0
 17 22  1  0  0  0  0
 18 19  1  6  0  0  0
 18 20  1  0  0  0  0
 19  3  1  0  0  0  0
 20 13  1  1  0  0  0
 20 21  1  0  0  0  0
 21 15  1  6  0  0  0
 21 22  1  0  0  0  0
 22  6  1  1  0  0  0
M  END
>  <CHROM.1>
80.40347734,61.51808854,61.74853664,28.59652052,0.91246741,8.65635193,-2.29078383
-0.97520738,-1.45581284

>  <Name>
2fcx_lig

>  <RI>
2.51704e+07

>  <Rbt.Current_Directory>
/home/itssahil/PROJECTS/Mol_Feturizer/New_Systems/rnas/2fcx

>  <Rbt.Executable>
rbdock ($Id: //depot/dev/client3/rdock/2013.1/src/exe/rbdock.cxx#4 $)

>  <Rbt.Library>
libRbt.so (2013.1, Build901 2013/11/27)

>  <Rbt.Parameter_File>
/export/apps/rDock/src/rDock_2013.1_src/data/scripts/dock_solv.prm

>  <Rbt.Receptor>
prm/blind_docking_80.prm

>  <SCORE>
-13.959

>  <SCORE.INTER>
-12.2605

>  <SCORE.INTER.CONST>
1

>  <SCORE.INTER.POLAR>
-2.03935

>  <SCORE.INTER.ROT>
3

>  <SCORE.INTER.SOLV>
22.4217

>  <SCORE.INTER.VDW>
-14.4497

>  <SCORE.INTER.norm>
-0.557294

>  <SCORE.INTRA>
-1.7653

>  <SCORE.INTRA.DIHEDRAL>
-2.98999

>  <SCORE.INTRA.DIHEDRAL.0>
4.88619

>  <SCORE.INTRA.POLAR>
0

>  <SCORE.INTRA.POLAR.0>
0

>  <SCORE.INTRA.REPUL>
0

>  <SCORE.INTRA.REPUL.0>
0

>  <SCORE.INTRA.SOLV>
-0.0315474

>  <SCORE.INTRA.SOLV.lig_0>
-73.8187

>  <SCORE.INTRA.VDW>
-0.254526

>  <SCORE.INTRA.VDW.0>
-1.32335

>  <SCORE.INTRA.norm>
-0.0802407

>  <SCORE.RESTR>
0.0667657

>  <SCORE.RESTR.CAVITY>
0.0667657

>  <SCORE.RESTR.norm>
0.00303481

>  <SCORE.SYSTEM>
0

>  <SCORE.SYSTEM.CONST>
0

>  <SCORE.SYSTEM.DIHEDRAL>
0

>  <SCORE.SYSTEM.SOLV>
0

>  <SCORE.SYSTEM.norm>
0

>  <SCORE.heavy>
22

>  <SCORE.norm>
-0.6345

>  <RMSD>
12.415

$$$$
2fcx_lig
 OpenBabel11021811433D
libRbt.so/2013.1/901 2013/11/27
 22 23  0  0  0  0  0  0  0  0999 V2000
   27.2899    3.6782    0.5625 N   0  0  0  0  0  0  0  0  0  0  0  0
   29.5870    0.5385    3.5525 N   0  0  0  0  0  0  0  0  0  0  0  0
   30.9873   -0.1096    9.7890 N   0  0  0  0  0  0  0  0  0  0  0  0
   26.3666    3.7103    5.3547 O   0  0  0  0  0  0  0  0  0  0  0  0
   27.3894    3.5331    4.3709 C   0  0  2  0  0  0  0  0  0  0  0  0
   26.4285    0.2994    5.9134 N   0  0  0  0  0  0  0  0  0  0  0  0
   26.3632    5.1157    2.8875 O   0  0  0  0  0  0  0  0  0  0  0  0
   26.8126    3.7581    2.9712 C   0  0  1  0  0  0  0  0  0  0  0  0
   28.7036    2.0449    5.7813 O   0  0  0  0  0  0  0  0  0  0  0  0
   27.8755    3.5040    1.8998 C   0  0  1  0  0  0  0  0  0  0  0  0
   29.8997    0.6477    7.2335 O   0  0  0  0  0  0  0  0  0  0  0  0
   28.4346    2.0825    2.0223 C   0  0  0  0  0  0  0  0  0  0  0  0
   28.0617    1.8274   10.2188 O   0  0  0  0  0  0  0  0  0  0  0  0
   29.0470    1.8983    3.4136 C   0  0  1  0  0  0  0  0  0  0  0  0
   25.9959    0.5761    8.7366 O   0  0  0  0  0  0  0  0  0  0  0  0
   28.0183    2.1426    4.5216 C   0  0  2  0  0  0  0  0  0  0  0  0
   28.8445    0.6947    6.2554 C   0  0  1  0  0  0  0  0  0  0  0  0
   29.6422    1.4352    8.4136 C   0  0  2  0  0  0  0  0  0  0  0  0
   30.7950    1.2983    9.4106 C   0  0  0  0  0  0  0  0  0  0  0  0
   28.3525    0.9808    9.1024 C   0  0  2  0  0  0  0  0  0  0  0  0
   27.1878    1.0593    8.1141 C   0  0  1  0  0  0  0  0  0  0  0  0
   27.5294    0.2163    6.8826 C   0  0  1  0  0  0  0  0  0  0  0  0
  5  4  1  1  0  0  0
  5  8  1  0  0  0  0
  5 16  1  0  0  0  0
  8  7  1  1  0  0  0
  8 10  1  0  0  0  0
 10  1  1  6  0  0  0
 10 12  1  0  0  0  0
 11 18  1  0  0  0  0
 12 14  1  0  0  0  0
 14  2  1  6  0  0  0
 14 16  1  0  0  0  0
 16  9  1  1  0  0  0
 17  9  1  1  0  0  0
 17 11  1  0  0  0  0
 17 22  1  0  0  0  0
 18 19  1  1  0  0  0
 18 20  1  0  0  0  0
 19  3  1  0  0  0  0
 20 13  1  1  0  0  0
 20 21  1  0  0  0  0
 21 15  1  1  0  0  0
 21 22  1  0  0  0  0
 22  6  1  6  0  0  0
M  END
>  <CHROM.1>
156.04621075,160.48664764,-58.45637900,28.14429281,1.87627370,5.83263432
-1.81039618,-0.46931793,1.83574146

>  <Name>
2fcx_lig

>  <RI>
224

>  <Rbt.Current_Directory>
/home/itssahil/PROJECTS/Mol_Feturizer/New_Systems/rnas/2fcx

>  <Rbt.Executable>
rbdock ($Id: //depot/dev/client3/rdock/2013.1/src/exe/rbdock.cxx#4 $)

>  <Rbt.Library>
libRbt.so (2013.1, Build901 2013/11/27)

>  <Rbt.Parameter_File>
/export/apps/rDock/src/rDock_2013.1_src/data/scripts/dock_solv.prm

>  <Rbt.Receptor>
prm/blind_docking_60.prm

>  <SCORE>
-12.6914

>  <SCORE.INTER>
-14.7533

>  <SCORE.INTER.CONST>
1

>  <SCORE.INTER.POLAR>
-1.73371

>  <SCORE.INTER.ROT>
3

>  <SCORE.INTER.SOLV>
9.44319

>  <SCORE.INTER.VDW>
-12.8042

>  <SCORE.INTER.norm>
-0.670604

>  <SCORE.INTRA>
2.06189

>  <SCORE.INTRA.DIHEDRAL>
-0.670315

>  <SCORE.INTRA.DIHEDRAL.0>
4.88619

>  <SCORE.INTRA.POLAR>
0

>  <SCORE.INTRA.POLAR.0>
0

>  <SCORE.INTRA.REPUL>
0

>  <SCORE.INTRA.REPUL.0>
0

>  <SCORE.INTRA.SOLV>
4.09884

>  <SCORE.INTRA.SOLV.lig_0>
-73.8187

>  <SCORE.INTRA.VDW>
0.347623

>  <SCORE.INTRA.VDW.0>
-1.32335

>  <SCORE.INTRA.norm>
0.0937222

>  <SCORE.RESTR>
0

>  <SCORE.RESTR.CAVITY>
0

>  <SCORE.RESTR.norm>
0

>  <SCORE.SYSTEM>
0

>  <SCORE.SYSTEM.CONST>
0

>  <SCORE.SYSTEM.DIHEDRAL>
0

>  <SCORE.SYSTEM.SOLV>
0

>  <SCORE.SYSTEM.norm>
0

>  <SCORE.heavy>
22

>  <SCORE.norm>
-0.576882

>  <RMSD>
12.418

$$$$
2fcx_lig
 OpenBabel11021811433D
libRbt.so/2013.1/901 2013/11/27
 22 23  0  0  0  0  0  0  0  0999 V2000
   29.3094   -2.4810   13.5937 N   0  0  0  0  0  0  0  0  0  0  0  0
   31.6227    0.1267   10.1407 N   0  0  0  0  0  0  0  0  0  0  0  0
   29.1585    4.1924   10.2431 N   0  0  0  0  0  0  0  0  0  0  0  0
   26.8017   -0.4932    9.9087 O   0  0  0  0  0  0  0  0  0  0  0  0
   28.0335   -1.1259   10.2664 C   0  0  2  0  0  0  0  0  0  0  0  0
   28.3174   -0.4686    5.8695 N   0  0  0  0  0  0  0  0  0  0  0  0
   26.9570   -2.4902   11.9211 O   0  0  0  0  0  0  0  0  0  0  0  0
   28.0042   -1.5292   11.7425 C   0  0  1  0  0  0  0  0  0  0  0  0
   29.3012    0.0087    8.5237 O   0  0  0  0  0  0  0  0  0  0  0  0
   29.3409   -2.1448   12.1627 C   0  0  1  0  0  0  0  0  0  0  0  0
   28.3065    2.1305    8.5449 O   0  0  0  0  0  0  0  0  0  0  0  0
   30.4905   -1.1657   11.9017 C   0  0  0  0  0  0  0  0  0  0  0  0
   30.9091    3.6024    6.3674 O   0  0  0  0  0  0  0  0  0  0  0  0
   30.5273   -0.8149   10.4117 C   0  0  1  0  0  0  0  0  0  0  0  0
   29.7188    1.7069    4.6295 O   0  0  0  0  0  0  0  0  0  0  0  0
   29.2078   -0.1938    9.9437 C   0  0  2  0  0  0  0  0  0  0  0  0
   28.2323    0.8060    7.9857 C   0  0  1  0  0  0  0  0  0  0  0  0
   29.5135    2.8435    8.2078 C   0  0  2  0  0  0  0  0  0  0  0  0
   29.4911    4.2494    8.8118 C   0  0  0  0  0  0  0  0  0  0  0  0
   29.6649    2.9734    6.6897 C   0  0  2  0  0  0  0  0  0  0  0  0
   29.6409    1.5838    6.0509 C   0  0  1  0  0  0  0  0  0  0  0  0
   28.3452    0.8772    6.4580 C   0  0  1  0  0  0  0  0  0  0  0  0
  5  4  1  1  0  0  0
  5  8  1  0  0  0  0
  5 16  1  0  0  0  0
  8  7  1  6  0  0  0
  8 10  1  0  0  0  0
 10  1  1  1  0  0  0
 10 12  1  0  0  0  0
 11 18  1  0  0  0  0
 12 14  1  0  0  0  0
 14  2  1  1  0  0  0
 14 16  1  0  0  0  0
 16  9  1  6  0  0  0
 17  9  1  1  0  0  0
 17 11  1  0  0  0  0
 17 22  1  0  0  0  0
 18 19  1  1  0  0  0
 18 20  1  0  0  0  0
 19  3  1  0  0  0  0
 20 13  1  1  0  0  0
 20 21  1  0  0  0  0
 21 15  1  6  0  0  0
 21 22  1  0  0  0  0
 22  6  1  6  0  0  0
M  END
>  <CHROM.1>
70.27634062,63.90296384,50.38222322,29.11628975,0.56890978,9.08128811,-1.83103734
-1.07772629,-1.11620628

>  <Name>
2fcx_lig

>  <RI>
2.63278e+07

>  <Rbt.Current_Directory>
/home/itssahil/PROJECTS/Mol_Feturizer/New_Systems/rnas/2fcx

>  <Rbt.Executable>
rbdock ($Id: //depot/dev/client3/rdock/2013.1/src/exe/rbdock.cxx#4 $)

>  <Rbt.Library>
libRbt.so (2013.1, Build901 2013/11/27)

>  <Rbt.Parameter_File>
/export/apps/rDock/src/rDock_2013.1_src/data/scripts/dock_solv.prm

>  <Rbt.Receptor>
prm/blind_docking_40.prm

>  <SCORE>
-12.9269

>  <SCORE.INTER>
-11.0228

>  <SCORE.INTER.CONST>
1

>  <SCORE.INTER.POLAR>
-1.37148

>  <SCORE.INTER.ROT>
3

>  <SCORE.INTER.SOLV>
20.0913

>  <SCORE.INTER.VDW>
-15.074

>  <SCORE.INTER.norm>
-0.501036

>  <SCORE.INTRA>
-1.90408

>  <SCORE.INTRA.DIHEDRAL>
-3.96202

>  <SCORE.INTRA.DIHEDRAL.0>
4.88619

>  <SCORE.INTRA.POLAR>
0

>  <SCORE.INTRA.POLAR.0>
0

>  <SCORE.INTRA.REPUL>
0

>  <SCORE.INTRA.REPUL.0>
0

>  <SCORE.INTRA.SOLV>
-0.680228

>  <SCORE.INTRA.SOLV.lig_0>
-73.8187

>  <SCORE.INTRA.VDW>
0.417048

>  <SCORE.INTRA.VDW.0>
-1.32335

>  <SCORE.INTRA.norm>
-0.0865489

>  <SCORE.RESTR>
0

>  <SCORE.RESTR.CAVITY>
0

>  <SCORE.RESTR.norm>
0

>  <SCORE.SYSTEM>
0

>  <SCORE.SYSTEM.CONST>
0

>  <SCORE.SYSTEM.DIHEDRAL>
0

>  <SCORE.SYSTEM.SOLV>
0

>  <SCORE.SYSTEM.norm>
0

>  <SCORE.heavy>
22

>  <SCORE.norm>
-0.587585

>  <RMSD>
12.438

$$$$
2fcx_lig
 OpenBabel11021811433D
libRbt.so/2013.1/901 2013/11/27
 22 23  0  0  0  0  0  0  0  0999 V2000
   27.1604    5.6085    9.6350 N   0  0  0  0  0  0  0  0  0  0  0  0
   31.1681    3.3342    7.9496 N   0  0  0  0  0  0  0  0  0  0  0  0
   31.9229    0.7878    3.4684 N   0  0  0  0  0  0  0  0  0  0  0  0
   26.9209    0.9672    8.1452 O   0  0  0  0  0  0  0  0  0  0  0  0
   27.7398    1.9311    8.8128 C   0  0  2  0  0  0  0  0  0  0  0  0
   29.9816   -1.8450    9.1183 N   0  0  0  0  0  0  0  0  0  0  0  0
   25.8281    3.0500    9.7357 O   0  0  0  0  0  0  0  0  0  0  0  0
   26.9921    3.2616    8.9280 C   0  0  1  0  0  0  0  0  0  0  0  0
   29.8199    0.8523    8.1491 O   0  0  0  0  0  0  0  0  0  0  0  0
   27.8786    4.3270    9.5772 C   0  0  1  0  0  0  0  0  0  0  0  0
   29.2769    0.0823    6.0034 O   0  0  0  0  0  0  0  0  0  0  0  0
   29.1724    4.5116    8.7770 C   0  0  0  0  0  0  0  0  0  0  0  0
   32.7594   -0.9121    5.2515 O   0  0  0  0  0  0  0  0  0  0  0  0
   29.9239    3.1789    8.7164 C   0  0  1  0  0  0  0  0  0  0  0  0
   32.1152   -2.6645    7.3832 O   0  0  0  0  0  0  0  0  0  0  0  0
   29.0747    2.0790    8.0725 C   0  0  2  0  0  0  0  0  0  0  0  0
   29.2261   -0.2277    7.4083 C   0  0  1  0  0  0  0  0  0  0  0  0
   30.6136    0.2082    5.4777 C   0  0  2  0  0  0  0  0  0  0  0  0
   30.5730    0.5013    3.9763 C   0  0  0  0  0  0  0  0  0  0  0  0
   31.4097   -1.0813    5.6958 C   0  0  2  0  0  0  0  0  0  0  0  0
   31.4264   -1.4284    7.1854 C   0  0  1  0  0  0  0  0  0  0  0  0
   29.9822   -1.5335    7.6826 C   0  0  1  0  0  0  0  0  0  0  0  0
  5  4  1  6  0  0  0
  5  8  1  0  0  0  0
  5 16  1  0  0  0  0
  8  7  1  1  0  0  0
  8 10  1  0  0  0  0
 10  1  1  6  0  0  0
 10 12  1  0  0  0  0
 11 18  1  0  0  0  0
 12 14  1  0  0  0  0
 14  2  1  6  0  0  0
 14 16  1  0  0  0  0
 16  9  1  1  0  0  0
 17  9  1  1  0  0  0
 17 11  1  0  0  0  0
 17 22  1  0  0  0  0
 18 19  1  6  0  0  0
 18 20  1  0  0  0  0
 19  3  1  0  0  0  0
 20 13  1  1  0  0  0
 20 21  1  0  0  0  0
 21 15  1  6  0  0  0
 21 22  1  0  0  0  0
 22  6  1  1  0  0  0
M  END
>  <CHROM.1>
68.16936361,66.32620422,173.29430708,29.58934078,1.10311627,7.49632903,-2.57191969
-0.83925599,2.89873639

>  <Name>
2fcx_lig

>  <RI>
2.63278e+07

>  <Rbt.Current_Directory>
/home/itssahil/PROJECTS/Mol_Feturizer/New_Systems/rnas/2fcx

>  <Rbt.Executable>
rbdock ($Id: //depot/dev/client3/rdock/2013.1/src/exe/rbdock.cxx#4 $)

>  <Rbt.Library>
libRbt.so (2013.1, Build901 2013/11/27)

>  <Rbt.Parameter_File>
/export/apps/rDock/src/rDock_2013.1_src/data/scripts/dock_solv.prm

>  <Rbt.Receptor>
prm/blind_docking_40.prm

>  <SCORE>
-6.4831

>  <SCORE.INTER>
-5.53419

>  <SCORE.INTER.CONST>
1

>  <SCORE.INTER.POLAR>
0

>  <SCORE.INTER.ROT>
3

>  <SCORE.INTER.SOLV>
11.9417

>  <SCORE.INTER.VDW>
-13.27

>  <SCORE.INTER.norm>
-0.251554

>  <SCORE.INTRA>
-0.948911

>  <SCORE.INTRA.DIHEDRAL>
-4.19327

>  <SCORE.INTRA.DIHEDRAL.0>
4.88619

>  <SCORE.INTRA.POLAR>
0

>  <SCORE.INTRA.POLAR.0>
0

>  <SCORE.INTRA.REPUL>
0

>  <SCORE.INTRA.REPUL.0>
0

>  <SCORE.INTRA.SOLV>
0.334594

>  <SCORE.INTRA.SOLV.lig_0>
-73.8187

>  <SCORE.INTRA.VDW>
0.98043

>  <SCORE.INTRA.VDW.0>
-1.32335

>  <SCORE.INTRA.norm>
-0.0431323

>  <SCORE.RESTR>
0

>  <SCORE.RESTR.CAVITY>
0

>  <SCORE.RESTR.norm>
0

>  <SCORE.SYSTEM>
0

>  <SCORE.SYSTEM.CONST>
0

>  <SCORE.SYSTEM.DIHEDRAL>
0

>  <SCORE.SYSTEM.SOLV>
0

>  <SCORE.SYSTEM.norm>
0

>  <SCORE.heavy>
22

>  <SCORE.norm>
-0.294686

>  <RMSD>
12.439

$$$$
2fcx_lig
 OpenBabel11021811433D
libRbt.so/2013.1/901 2013/11/27
 22 23  0  0  0  0  0  0  0  0999 V2000
   28.3016    6.1071    7.7292 N   0  0  0  0  0  0  0  0  0  0  0  0
   28.8830    2.0739    4.9961 N   0  0  0  0  0  0  0  0  0  0  0  0
   33.1709   -1.3911    4.7895 N   0  0  0  0  0  0  0  0  0  0  0  0
   29.3402    1.8284    9.8346 O   0  0  0  0  0  0  0  0  0  0  0  0
   29.5873    2.6488    8.6895 C   0  0  2  0  0  0  0  0  0  0  0  0
   27.6128   -0.5974    8.0403 N   0  0  0  0  0  0  0  0  0  0  0  0
   29.3924    4.6636    9.9781 O   0  0  0  0  0  0  0  0  0  0  0  0
   28.8556    3.9850    8.8364 C   0  0  1  0  0  0  0  0  0  0  0  0
   30.0147    0.7483    7.2277 O   0  0  0  0  0  0  0  0  0  0  0  0
   29.0505    4.8497    7.5888 C   0  0  1  0  0  0  0  0  0  0  0  0
   30.4663   -0.9359    5.6620 O   0  0  0  0  0  0  0  0  0  0  0  0
   28.5609    4.1101    6.3391 C   0  0  0  0  0  0  0  0  0  0  0  0
   31.6259   -3.3161    8.2449 O   0  0  0  0  0  0  0  0  0  0  0  0
   29.3404    2.8006    6.1889 C   0  0  1  0  0  0  0  0  0  0  0  0
   28.9000   -2.9953    8.9499 O   0  0  0  0  0  0  0  0  0  0  0  0
   29.1751    1.8996    7.4164 C   0  0  2  0  0  0  0  0  0  0  0  0
   29.4245   -0.2623    6.3923 C   0  0  1  0  0  0  0  0  0  0  0  0
   31.4071   -1.6408    6.4967 C   0  0  2  0  0  0  0  0  0  0  0  0
   32.4542   -2.3543    5.6386 C   0  0  0  0  0  0  0  0  0  0  0  0
   30.6953   -2.6875    7.3581 C   0  0  2  0  0  0  0  0  0  0  0  0
   29.6067   -2.0109    8.1928 C   0  0  1  0  0  0  0  0  0  0  0  0
   28.6525   -1.2715    7.2511 C   0  0  1  0  0  0  0  0  0  0  0  0
  5  4  1  1  0  0  0
  5  8  1  0  0  0  0
  5 16  1  0  0  0  0
  8  7  1  1  0  0  0
  8 10  1  0  0  0  0
 10  1  1  1  0  0  0
 10 12  1  0  0  0  0
 11 18  1  0  0  0  0
 12 14  1  0  0  0  0
 14  2  1  6  0  0  0
 14 16  1  0  0  0  0
 16  9  1  6  0  0  0
 17  9  1  1  0  0  0
 17 11  1  0  0  0  0
 17 22  1  0  0  0  0
 18 19  1  6  0  0  0
 18 20  1  0  0  0  0
 19  3  1  0  0  0  0
 20 13  1  1  0  0  0
 20 21  1  0  0  0  0
 21 15  1  6  0  0  0
 21 22  1  0  0  0  0
 22  6  1  1  0  0  0
M  END
>  <CHROM.1>
158.08346751,147.85376796,58.39078988,29.76429577,0.70729373,7.39051959,-2.20632222
-1.05029563,2.73575444

>  <Name>
2fcx_lig

>  <RI>
2.51704e+07

>  <Rbt.Current_Directory>
/home/itssahil/PROJECTS/Mol_Feturizer/New_Systems/rnas/2fcx

>  <Rbt.Executable>
rbdock ($Id: //depot/dev/client3/rdock/2013.1/src/exe/rbdock.cxx#4 $)

>  <Rbt.Library>
libRbt.so (2013.1, Build901 2013/11/27)

>  <Rbt.Parameter_File>
/export/apps/rDock/src/rDock_2013.1_src/data/scripts/dock_solv.prm

>  <Rbt.Receptor>
prm/blind_docking_80.prm

>  <SCORE>
-10.7438

>  <SCORE.INTER>
-13.0454

>  <SCORE.INTER.CONST>
1

>  <SCORE.INTER.POLAR>
-1.85359

>  <SCORE.INTER.ROT>
3

>  <SCORE.INTER.SOLV>
8.83918

>  <SCORE.INTER.VDW>
-11.0647

>  <SCORE.INTER.norm>
-0.592971

>  <SCORE.INTRA>
1.73462

>  <SCORE.INTRA.DIHEDRAL>
1.25596

>  <SCORE.INTRA.DIHEDRAL.0>
4.88619

>  <SCORE.INTRA.POLAR>
0

>  <SCORE.INTRA.POLAR.0>
0

>  <SCORE.INTRA.REPUL>
0

>  <SCORE.INTRA.REPUL.0>
0

>  <SCORE.INTRA.SOLV>
1.9556

>  <SCORE.INTRA.SOLV.lig_0>
-73.8187

>  <SCORE.INTRA.VDW>
0.128836

>  <SCORE.INTRA.VDW.0>
-1.32335

>  <SCORE.INTRA.norm>
0.0788461

>  <SCORE.RESTR>
0.566915

>  <SCORE.RESTR.CAVITY>
0.566915

>  <SCORE.RESTR.norm>
0.0257689

>  <SCORE.SYSTEM>
0

>  <SCORE.SYSTEM.CONST>
0

>  <SCORE.SYSTEM.DIHEDRAL>
0

>  <SCORE.SYSTEM.SOLV>
0

>  <SCORE.SYSTEM.norm>
0

>  <SCORE.heavy>
22

>  <SCORE.norm>
-0.488356

>  <RMSD>
12.446

$$$$
2fcx_lig
 OpenBabel11021811433D
libRbt.so/2013.1/901 2013/11/27
 22 23  0  0  0  0  0  0  0  0999 V2000
   27.3040    3.8329    1.5672 N   0  0  0  0  0  0  0  0  0  0  0  0
   29.1435    0.3923    4.5427 N   0  0  0  0  0  0  0  0  0  0  0  0
   31.2320   -1.1906    5.8629 N   0  0  0  0  0  0  0  0  0  0  0  0
   25.4014    3.1367    6.0073 O   0  0  0  0  0  0  0  0  0  0  0  0
   26.6169    3.1451    5.2537 C   0  0  2  0  0  0  0  0  0  0  0  0
   25.9762    1.0497    8.9443 N   0  0  0  0  0  0  0  0  0  0  0  0
   25.8132    4.8813    3.8053 O   0  0  0  0  0  0  0  0  0  0  0  0
   26.3304    3.5455    3.8046 C   0  0  1  0  0  0  0  0  0  0  0  0
   27.7101    1.5246    6.7063 O   0  0  0  0  0  0  0  0  0  0  0  0
   27.6086    3.4921    2.9647 C   0  0  1  0  0  0  0  0  0  0  0  0
   28.5935   -0.6381    6.8914 O   0  0  0  0  0  0  0  0  0  0  0  0
   28.2292    2.0920    3.0167 C   0  0  0  0  0  0  0  0  0  0  0  0
   30.6791    0.2385    9.8177 O   0  0  0  0  0  0  0  0  0  0  0  0
   28.5494    1.7347    4.4708 C   0  0  1  0  0  0  0  0  0  0  0  0
   28.0659    0.5894   10.8562 O   0  0  0  0  0  0  0  0  0  0  0  0
   27.2975    1.7744    5.3522 C   0  0  2  0  0  0  0  0  0  0  0  0
   27.4405    0.1839    7.1508 C   0  0  1  0  0  0  0  0  0  0  0  0
   29.7762   -0.2346    7.6106 C   0  0  2  0  0  0  0  0  0  0  0  0
   30.9384   -1.1816    7.3038 C   0  0  0  0  0  0  0  0  0  0  0  0
   29.5282   -0.2494    9.1214 C   0  0  2  0  0  0  0  0  0  0  0  0
   28.3379    0.6515    9.4548 C   0  0  1  0  0  0  0  0  0  0  0  0
   27.1231    0.1798    8.6512 C   0  0  1  0  0  0  0  0  0  0  0  0
  5  4  1  1  0  0  0
  5  8  1  0  0  0  0
  5 16  1  0  0  0  0
  8  7  1  1  0  0  0
  8 10  1  0  0  0  0
 10  1  1  6  0  0  0
 10 12  1  0  0  0  0
 11 18  1  0  0  0  0
 12 14  1  0  0  0  0
 14  2  1  6  0  0  0
 14 16  1  0  0  0  0
 16  9  1  1  0  0  0
 17  9  1  1  0  0  0
 17 11  1  0  0  0  0
 17 22  1  0  0  0  0
 18 19  1  1  0  0  0
 18 20  1  0  0  0  0
 19  3  1  0  0  0  0
 20 13  1  1  0  0  0
 20 21  1  0  0  0  0
 21 15  1  1  0  0  0
 21 22  1  0  0  0  0
 22  6  1  6  0  0  0
M  END
>  <CHROM.1>
137.31045121,91.91731543,59.14169907,28.06999847,1.32420836,6.36268940,-2.01428835
-0.63457908,1.88489001

>  <Name>
2fcx_lig

>  <RI>
224

>  <Rbt.Current_Directory>
/home/itssahil/PROJECTS/Mol_Feturizer/New_Systems/rnas/2fcx

>  <Rbt.Executable>
rbdock ($Id: //depot/dev/client3/rdock/2013.1/src/exe/rbdock.cxx#4 $)

>  <Rbt.Library>
libRbt.so (2013.1, Build901 2013/11/27)

>  <Rbt.Parameter_File>
/export/apps/rDock/src/rDock_2013.1_src/data/scripts/dock_solv.prm

>  <Rbt.Receptor>
prm/blind_docking_100.prm

>  <SCORE>
-9.31597

>  <SCORE.INTER>
-13.0542

>  <SCORE.INTER.CONST>
1

>  <SCORE.INTER.POLAR>
-1.8957

>  <SCORE.INTER.ROT>
3

>  <SCORE.INTER.SOLV>
9.75173

>  <SCORE.INTER.VDW>
-11.2344

>  <SCORE.INTER.norm>
-0.593372

>  <SCORE.INTRA>
3.73821

>  <SCORE.INTRA.DIHEDRAL>
4.90383

>  <SCORE.INTRA.DIHEDRAL.0>
4.88619

>  <SCORE.INTRA.POLAR>
0

>  <SCORE.INTRA.POLAR.0>
0

>  <SCORE.INTRA.REPUL>
0

>  <SCORE.INTRA.REPUL.0>
0

>  <SCORE.INTRA.SOLV>
4.01601

>  <SCORE.INTRA.SOLV.lig_0>
-73.8187

>  <SCORE.INTRA.VDW>
-0.721704

>  <SCORE.INTRA.VDW.0>
-1.32335

>  <SCORE.INTRA.norm>
0.169919

>  <SCORE.RESTR>
0

>  <SCORE.RESTR.CAVITY>
0

>  <SCORE.RESTR.norm>
0

>  <SCORE.SYSTEM>
0

>  <SCORE.SYSTEM.CONST>
0

>  <SCORE.SYSTEM.DIHEDRAL>
0

>  <SCORE.SYSTEM.SOLV>
0

>  <SCORE.SYSTEM.norm>
0

>  <SCORE.heavy>
22

>  <SCORE.norm>
-0.423453

>  <RMSD>
12.457

$$$$
2fcx_lig
 OpenBabel11021811433D
libRbt.so/2013.1/901 2013/11/27
 22 23  0  0  0  0  0  0  0  0999 V2000
   27.5574   -2.4127   12.9376 N   0  0  0  0  0  0  0  0  0  0  0  0
   30.6769    0.2422   10.2368 N   0  0  0  0  0  0  0  0  0  0  0  0
   28.9927    4.3580   10.1380 N   0  0  0  0  0  0  0  0  0  0  0  0
   26.0141   -0.1469    8.8998 O   0  0  0  0  0  0  0  0  0  0  0  0
   27.1113   -0.8505    9.4886 C   0  0  2  0  0  0  0  0  0  0  0  0
   28.2997    0.0713    5.3169 N   0  0  0  0  0  0  0  0  0  0  0  0
   25.6438   -2.2387   10.7837 O   0  0  0  0  0  0  0  0  0  0  0  0
   26.7363   -1.3191   10.8965 C   0  0  1  0  0  0  0  0  0  0  0  0
   28.7771    0.3037    8.1380 O   0  0  0  0  0  0  0  0  0  0  0  0
   27.9221   -2.0133   11.5704 C   0  0  1  0  0  0  0  0  0  0  0  0
   28.0717    2.5382    8.1053 O   0  0  0  0  0  0  0  0  0  0  0  0
   29.1335   -1.0766   11.6269 C   0  0  0  0  0  0  0  0  0  0  0  0
   31.2245    3.7297    6.5816 O   0  0  0  0  0  0  0  0  0  0  0  0
   29.5172   -0.6601   10.2042 C   0  0  1  0  0  0  0  0  0  0  0  0
   30.1838    2.0845    4.5223 O   0  0  0  0  0  0  0  0  0  0  0  0
   28.3591    0.0410    9.4879 C   0  0  2  0  0  0  0  0  0  0  0  0
   27.9475    1.2597    7.4556 C   0  0  1  0  0  0  0  0  0  0  0  0
   29.4014    3.0939    8.0589 C   0  0  2  0  0  0  0  0  0  0  0  0
   29.4329    4.4644    8.7389 C   0  0  0  0  0  0  0  0  0  0  0  0
   29.8722    3.2629    6.6118 C   0  0  2  0  0  0  0  0  0  0  0  0
   29.8048    1.9162    5.8897 C   0  0  1  0  0  0  0  0  0  0  0  0
   28.3755    1.3761    5.9876 C   0  0  1  0  0  0  0  0  0  0  0  0
  5  4  1  1  0  0  0
  5  8  1  0  0  0  0
  5 16  1  0  0  0  0
  8  7  1  6  0  0  0
  8 10  1  0  0  0  0
 10  1  1  1  0  0  0
 10 12  1  0  0  0  0
 11 18  1  0  0  0  0
 12 14  1  0  0  0  0
 14  2  1  1  0  0  0
 14 16  1  0  0  0  0
 16  9  1  6  0  0  0
 17  9  1  1  0  0  0
 17 11  1  0  0  0  0
 17 22  1  0  0  0  0
 18 19  1  6  0  0  0
 18 20  1  0  0  0  0
 19  3  1  0  0  0  0
 20 13  1  1  0  0  0
 20 21  1  0  0  0  0
 21 15  1  6  0  0  0
 21 22  1  0  0  0  0
 22  6  1  1  0  0  0
M  END
>  <CHROM.1>
75.20773238,64.95228345,58.53704947,28.58577173,0.83472310,8.68378072,-2.25616992
-0.99536217,-1.40919110

>  <Name>
2fcx_lig

>  <RI>
2.63278e+07

>  <Rbt.Current_Directory>
/home/itssahil/PROJECTS/Mol_Feturizer/New_Systems/rnas/2fcx

>  <Rbt.Executable>
rbdock ($Id: //depot/dev/client3/rdock/2013.1/src/exe/rbdock.cxx#4 $)

>  <Rbt.Library>
libRbt.so (2013.1, Build901 2013/11/27)

>  <Rbt.Parameter_File>
/export/apps/rDock/src/rDock_2013.1_src/data/scripts/dock_solv.prm

>  <Rbt.Receptor>
prm/blind_docking_40.prm

>  <SCORE>
-14.5688

>  <SCORE.INTER>
-12.505

>  <SCORE.INTER.CONST>
1

>  <SCORE.INTER.POLAR>
-2.00866

>  <SCORE.INTER.ROT>
3

>  <SCORE.INTER.SOLV>
20.9759

>  <SCORE.INTER.VDW>
-14.2331

>  <SCORE.INTER.norm>
-0.568408

>  <SCORE.INTRA>
-2.06381

>  <SCORE.INTRA.DIHEDRAL>
-3.66651

>  <SCORE.INTRA.DIHEDRAL.0>
4.88619

>  <SCORE.INTRA.POLAR>
0

>  <SCORE.INTRA.POLAR.0>
0

>  <SCORE.INTRA.REPUL>
0

>  <SCORE.INTRA.REPUL.0>
0

>  <SCORE.INTRA.SOLV>
-0.519863

>  <SCORE.INTRA.SOLV.lig_0>
-73.8187

>  <SCORE.INTRA.VDW>
0.0293772

>  <SCORE.INTRA.VDW.0>
-1.32335

>  <SCORE.INTRA.norm>
-0.0938094

>  <SCORE.RESTR>
0

>  <SCORE.RESTR.CAVITY>
0

>  <SCORE.RESTR.norm>
0

>  <SCORE.SYSTEM>
0

>  <SCORE.SYSTEM.CONST>
0

>  <SCORE.SYSTEM.DIHEDRAL>
0

>  <SCORE.SYSTEM.SOLV>
0

>  <SCORE.SYSTEM.norm>
0

>  <SCORE.heavy>
22

>  <SCORE.norm>
-0.662218

>  <RMSD>
12.465

$$$$
2fcx_lig
 OpenBabel11021811433D
libRbt.so/2013.1/901 2013/11/27
 22 23  0  0  0  0  0  0  0  0999 V2000
   27.5219   -2.4554   12.9484 N   0  0  0  0  0  0  0  0  0  0  0  0
   30.6544    0.2250   10.2880 N   0  0  0  0  0  0  0  0  0  0  0  0
   28.9947    4.3587   10.1367 N   0  0  0  0  0  0  0  0  0  0  0  0
   26.0057   -0.1779    8.9070 O   0  0  0  0  0  0  0  0  0  0  0  0
   27.1005   -0.8795    9.5025 C   0  0  2  0  0  0  0  0  0  0  0  0
   28.2841    0.0378    5.3548 N   0  0  0  0  0  0  0  0  0  0  0  0
   25.6272   -2.2798   10.7781 O   0  0  0  0  0  0  0  0  0  0  0  0
   26.7147   -1.3560   10.9049 C   0  0  1  0  0  0  0  0  0  0  0  0
   28.7735    0.2879    8.1723 O   0  0  0  0  0  0  0  0  0  0  0  0
   27.8973   -2.0483   11.5865 C   0  0  1  0  0  0  0  0  0  0  0  0
   28.0780    2.5252    8.1267 O   0  0  0  0  0  0  0  0  0  0  0  0
   29.1041   -1.1066   11.6581 C   0  0  0  0  0  0  0  0  0  0  0  0
   31.2301    3.6919    6.5825 O   0  0  0  0  0  0  0  0  0  0  0  0
   29.4989   -0.6821   10.2408 C   0  0  1  0  0  0  0  0  0  0  0  0
   30.1741    2.0369    4.5389 O   0  0  0  0  0  0  0  0  0  0  0  0
   28.3444    0.0173    9.5172 C   0  0  2  0  0  0  0  0  0  0  0  0
   27.9455    1.2427    7.4864 C   0  0  1  0  0  0  0  0  0  0  0  0
   29.4099    3.0746    8.0712 C   0  0  2  0  0  0  0  0  0  0  0  0
   29.4502    4.4497    8.7415 C   0  0  0  0  0  0  0  0  0  0  0  0
   29.8759    3.2313    6.6212 C   0  0  2  0  0  0  0  0  0  0  0  0
   29.7996    1.8799    5.9088 C   0  0  1  0  0  0  0  0  0  0  0  0
   28.3684    1.3470    6.0160 C   0  0  1  0  0  0  0  0  0  0  0  0
  5  4  1  1  0  0  0
  5  8  1  0  0  0  0
  5 16  1  0  0  0  0
  8  7  1  6  0  0  0
  8 10  1  0  0  0  0
 10  1  1  1  0  0  0
 10 12  1  0  0  0  0
 11 18  1  0  0  0  0
 12 14  1  0  0  0  0
 14  2  1  1  0  0  0
 14 16  1  0  0  0  0
 16  9  1  6  0  0  0
 17  9  1  1  0  0  0
 17 11  1  0  0  0  0
 17 22  1  0  0  0  0
 18 19  1  6  0  0  0
 18 20  1  0  0  0  0
 19  3  1  0  0  0  0
 20 13  1  1  0  0  0
 20 21  1  0  0  0  0
 21 15  1  6  0  0  0
 21 22  1  0  0  0  0
 22  6  1  1  0  0  0
M  END
>  <CHROM.1>
75.17004696,66.07870839,57.64842131,28.57676255,0.80716015,8.70219317,-2.26193834
-0.99451528,-1.41121889

>  <Name>
2fcx_lig

>  <RI>
2.63278e+07

>  <Rbt.Current_Directory>
/home/itssahil/PROJECTS/Mol_Feturizer/New_Systems/rnas/2fcx

>  <Rbt.Executable>
rbdock ($Id: //depot/dev/client3/rdock/2013.1/src/exe/rbdock.cxx#4 $)

>  <Rbt.Library>
libRbt.so (2013.1, Build901 2013/11/27)

>  <Rbt.Parameter_File>
/export/apps/rDock/src/rDock_2013.1_src/data/scripts/dock_solv.prm

>  <Rbt.Receptor>
prm/blind_docking_40.prm

>  <SCORE>
-14.6116

>  <SCORE.INTER>
-12.5846

>  <SCORE.INTER.CONST>
1

>  <SCORE.INTER.POLAR>
-1.99381

>  <SCORE.INTER.ROT>
3

>  <SCORE.INTER.SOLV>
20.986

>  <SCORE.INTER.VDW>
-14.339

>  <SCORE.INTER.norm>
-0.572027

>  <SCORE.INTRA>
-2.02701

>  <SCORE.INTRA.DIHEDRAL>
-3.59845

>  <SCORE.INTRA.DIHEDRAL.0>
4.88619

>  <SCORE.INTRA.POLAR>
0

>  <SCORE.INTRA.POLAR.0>
0

>  <SCORE.INTRA.REPUL>
0

>  <SCORE.INTRA.REPUL.0>
0

>  <SCORE.INTRA.SOLV>
-0.505943

>  <SCORE.INTRA.SOLV.lig_0>
-73.8187

>  <SCORE.INTRA.VDW>
0.0251849

>  <SCORE.INTRA.VDW.0>
-1.32335

>  <SCORE.INTRA.norm>
-0.0921368

>  <SCORE.RESTR>
0

>  <SCORE.RESTR.CAVITY>
0

>  <SCORE.RESTR.norm>
0

>  <SCORE.SYSTEM>
0

>  <SCORE.SYSTEM.CONST>
0

>  <SCORE.SYSTEM.DIHEDRAL>
0

>  <SCORE.SYSTEM.SOLV>
0

>  <SCORE.SYSTEM.norm>
0

>  <SCORE.heavy>
22

>  <SCORE.norm>
-0.664164

>  <RMSD>
12.477

$$$$
2fcx_lig
 OpenBabel11021811433D
libRbt.so/2013.1/901 2013/11/27
 22 23  0  0  0  0  0  0  0  0999 V2000
   27.4049    3.7508    1.4746 N   0  0  0  0  0  0  0  0  0  0  0  0
   29.1684    0.3496    4.5400 N   0  0  0  0  0  0  0  0  0  0  0  0
   31.1914   -1.2585    5.8857 N   0  0  0  0  0  0  0  0  0  0  0  0
   25.4348    3.1584    5.9003 O   0  0  0  0  0  0  0  0  0  0  0  0
   26.6605    3.1404    5.1636 C   0  0  2  0  0  0  0  0  0  0  0  0
   25.9655    1.1380    8.9006 N   0  0  0  0  0  0  0  0  0  0  0  0
   25.8943    4.8565    3.6715 O   0  0  0  0  0  0  0  0  0  0  0  0
   26.3978    3.5158    3.7033 C   0  0  1  0  0  0  0  0  0  0  0  0
   27.7172    1.5371    6.6616 O   0  0  0  0  0  0  0  0  0  0  0  0
   27.6868    3.4338    2.8823 C   0  0  1  0  0  0  0  0  0  0  0  0
   28.5584   -0.6380    6.8917 O   0  0  0  0  0  0  0  0  0  0  0  0
   28.2924    2.0288    2.9695 C   0  0  0  0  0  0  0  0  0  0  0  0
   30.6485    0.2546    9.8100 O   0  0  0  0  0  0  0  0  0  0  0  0
   28.5890    1.6962    4.4344 C   0  0  1  0  0  0  0  0  0  0  0  0
   28.0383    0.6746   10.8301 O   0  0  0  0  0  0  0  0  0  0  0  0
   27.3257    1.7651    5.2975 C   0  0  2  0  0  0  0  0  0  0  0  0
   27.4203    0.2105    7.1304 C   0  0  1  0  0  0  0  0  0  0  0  0
   29.7457   -0.2433    7.6083 C   0  0  2  0  0  0  0  0  0  0  0  0
   30.8910   -1.2179    7.3246 C   0  0  0  0  0  0  0  0  0  0  0  0
   29.4913   -0.2247    9.1180 C   0  0  2  0  0  0  0  0  0  0  0  0
   28.3171    0.7049    9.4290 C   0  0  1  0  0  0  0  0  0  0  0  0
   27.0969    0.2410    8.6291 C   0  0  1  0  0  0  0  0  0  0  0  0
  5  4  1  1  0  0  0
  5  8  1  0  0  0  0
  5 16  1  0  0  0  0
  8  7  1  1  0  0  0
  8 10  1  0  0  0  0
 10  1  1  6  0  0  0
 10 12  1  0  0  0  0
 11 18  1  0  0  0  0
 12 14  1  0  0  0  0
 14  2  1  6  0  0  0
 14 16  1  0  0  0  0
 16  9  1  1  0  0  0
 17  9  1  1  0  0  0
 17 11  1  0  0  0  0
 17 22  1  0  0  0  0
 18 19  1  1  0  0  0
 18 20  1  0  0  0  0
 19  3  1  0  0  0  0
 20 13  1  1  0  0  0
 20 21  1  0  0  0  0
 21 15  1  1  0  0  0
 21 22  1  0  0  0  0
 22  6  1  6  0  0  0
M  END
>  <CHROM.1>
136.94218141,91.39452767,59.22291678,28.08067229,1.32141395,6.32137894,-1.99742985
-0.64643409,1.87627228

>  <Name>
2fcx_lig

>  <RI>
224

>  <Rbt.Current_Directory>
/home/itssahil/PROJECTS/Mol_Feturizer/New_Systems/rnas/2fcx

>  <Rbt.Executable>
rbdock ($Id: //depot/dev/client3/rdock/2013.1/src/exe/rbdock.cxx#4 $)

>  <Rbt.Library>
libRbt.so (2013.1, Build901 2013/11/27)

>  <Rbt.Parameter_File>
/export/apps/rDock/src/rDock_2013.1_src/data/scripts/dock_solv.prm

>  <Rbt.Receptor>
prm/blind_docking_100.prm

>  <SCORE>
-9.34266

>  <SCORE.INTER>
-13.078

>  <SCORE.INTER.CONST>
1

>  <SCORE.INTER.POLAR>
-1.87791

>  <SCORE.INTER.ROT>
3

>  <SCORE.INTER.SOLV>
9.67449

>  <SCORE.INTER.VDW>
-11.2838

>  <SCORE.INTER.norm>
-0.594455

>  <SCORE.INTRA>
3.73536

>  <SCORE.INTRA.DIHEDRAL>
4.8594

>  <SCORE.INTRA.DIHEDRAL.0>
4.88619

>  <SCORE.INTRA.POLAR>
0

>  <SCORE.INTRA.POLAR.0>
0

>  <SCORE.INTRA.REPUL>
0

>  <SCORE.INTRA.REPUL.0>
0

>  <SCORE.INTRA.SOLV>
4.0509

>  <SCORE.INTRA.SOLV.lig_0>
-73.8187

>  <SCORE.INTRA.VDW>
-0.719792

>  <SCORE.INTRA.VDW.0>
-1.32335

>  <SCORE.INTRA.norm>
0.169789

>  <SCORE.RESTR>
0

>  <SCORE.RESTR.CAVITY>
0

>  <SCORE.RESTR.norm>
0

>  <SCORE.SYSTEM>
0

>  <SCORE.SYSTEM.CONST>
0

>  <SCORE.SYSTEM.DIHEDRAL>
0

>  <SCORE.SYSTEM.SOLV>
0

>  <SCORE.SYSTEM.norm>
0

>  <SCORE.heavy>
22

>  <SCORE.norm>
-0.424666

>  <RMSD>
12.480

$$$$
2fcx_lig
 OpenBabel11021811433D
libRbt.so/2013.1/901 2013/11/27
 22 23  0  0  0  0  0  0  0  0999 V2000
   27.6247   -2.5037   12.9681 N   0  0  0  0  0  0  0  0  0  0  0  0
   30.6946    0.2036   10.2624 N   0  0  0  0  0  0  0  0  0  0  0  0
   29.0536    4.3501   10.1433 N   0  0  0  0  0  0  0  0  0  0  0  0
   26.0186   -0.1992    8.9770 O   0  0  0  0  0  0  0  0  0  0  0  0
   27.1272   -0.9028    9.5439 C   0  0  2  0  0  0  0  0  0  0  0  0
   28.2031    0.0193    5.3852 N   0  0  0  0  0  0  0  0  0  0  0  0
   25.6842   -2.3159   10.8397 O   0  0  0  0  0  0  0  0  0  0  0  0
   26.7722   -1.3907   10.9504 C   0  0  1  0  0  0  0  0  0  0  0  0
   28.7693    0.2783    8.1875 O   0  0  0  0  0  0  0  0  0  0  0  0
   27.9703   -2.0854   11.6016 C   0  0  1  0  0  0  0  0  0  0  0  0
   28.0626    2.5124    8.1561 O   0  0  0  0  0  0  0  0  0  0  0  0
   29.1765   -1.1417   11.6549 C   0  0  0  0  0  0  0  0  0  0  0  0
   31.1653    3.6895    6.5224 O   0  0  0  0  0  0  0  0  0  0  0  0
   29.5403   -0.7057   10.2328 C   0  0  1  0  0  0  0  0  0  0  0  0
   30.0605    2.0249    4.5126 O   0  0  0  0  0  0  0  0  0  0  0  0
   28.3693   -0.0034    9.5391 C   0  0  2  0  0  0  0  0  0  0  0  0
   27.9182    1.2277    7.5227 C   0  0  1  0  0  0  0  0  0  0  0  0
   29.3899    3.0676    8.0625 C   0  0  2  0  0  0  0  0  0  0  0  0
   29.4425    4.4444    8.7283 C   0  0  0  0  0  0  0  0  0  0  0  0
   29.8147    3.2229    6.5997 C   0  0  2  0  0  0  0  0  0  0  0  0
   29.7249    1.8695    5.8928 C   0  0  1  0  0  0  0  0  0  0  0  0
   28.2997    1.3304    6.0409 C   0  0  1  0  0  0  0  0  0  0  0  0
  5  4  1  1  0  0  0
  5  8  1  0  0  0  0
  5 16  1  0  0  0  0
  8  7  1  6  0  0  0
  8 10  1  0  0  0  0
 10  1  1  1  0  0  0
 10 12  1  0  0  0  0
 11 18  1  0  0  0  0
 12 14  1  0  0  0  0
 14  2  1  1  0  0  0
 14 16  1  0  0  0  0
 16  9  1  6  0  0  0
 17  9  1  1  0  0  0
 17 11  1  0  0  0  0
 17 22  1  0  0  0  0
 18 19  1  6  0  0  0
 18 20  1  0  0  0  0
 19  3  1  0  0  0  0
 20 13  1  1  0  0  0
 20 21  1  0  0  0  0
 21 15  1  6  0  0  0
 21 22  1  0  0  0  0
 22  6  1  1  0  0  0
M  END
>  <CHROM.1>
74.66360757,66.79842793,58.83872075,28.57734978,0.78785593,8.71298867,-2.21715818
-0.99326720,-1.36882942

>  <Name>
2fcx_lig

>  <RI>
224

>  <Rbt.Current_Directory>
/home/itssahil/PROJECTS/Mol_Feturizer/New_Systems/rnas/2fcx

>  <Rbt.Executable>
rbdock ($Id: //depot/dev/client3/rdock/2013.1/src/exe/rbdock.cxx#4 $)

>  <Rbt.Library>
libRbt.so (2013.1, Build901 2013/11/27)

>  <Rbt.Parameter_File>
/export/apps/rDock/src/rDock_2013.1_src/data/scripts/dock_solv.prm

>  <Rbt.Receptor>
prm/blind_docking_100.prm

>  <SCORE>
-14.3875

>  <SCORE.INTER>
-12.3464

>  <SCORE.INTER.CONST>
1

>  <SCORE.INTER.POLAR>
-1.96049

>  <SCORE.INTER.ROT>
3

>  <SCORE.INTER.SOLV>
20.5159

>  <SCORE.INTER.VDW>
-14.1346

>  <SCORE.INTER.norm>
-0.561199

>  <SCORE.INTRA>
-2.0411

>  <SCORE.INTRA.DIHEDRAL>
-3.6365

>  <SCORE.INTRA.DIHEDRAL.0>
4.88619

>  <SCORE.INTRA.POLAR>
0

>  <SCORE.INTRA.POLAR.0>
0

>  <SCORE.INTRA.REPUL>
0

>  <SCORE.INTRA.REPUL.0>
0

>  <SCORE.INTRA.SOLV>
-0.538515

>  <SCORE.INTRA.SOLV.lig_0>
-73.8187

>  <SCORE.INTRA.VDW>
0.0464096

>  <SCORE.INTRA.VDW.0>
-1.32335

>  <SCORE.INTRA.norm>
-0.0927773

>  <SCORE.RESTR>
0

>  <SCORE.RESTR.CAVITY>
0

>  <SCORE.RESTR.norm>
0

>  <SCORE.SYSTEM>
0

>  <SCORE.SYSTEM.CONST>
0

>  <SCORE.SYSTEM.DIHEDRAL>
0

>  <SCORE.SYSTEM.SOLV>
0

>  <SCORE.SYSTEM.norm>
0

>  <SCORE.heavy>
22

>  <SCORE.norm>
-0.653976

>  <RMSD>
12.484

$$$$
2fcx_lig
 OpenBabel11021811433D
libRbt.so/2013.1/901 2013/11/27
 22 23  0  0  0  0  0  0  0  0999 V2000
   27.7277   -2.5246   12.9930 N   0  0  0  0  0  0  0  0  0  0  0  0
   30.7230    0.1822   10.2044 N   0  0  0  0  0  0  0  0  0  0  0  0
   29.0188    4.3029   10.1691 N   0  0  0  0  0  0  0  0  0  0  0  0
   26.0168   -0.2323    9.0386 O   0  0  0  0  0  0  0  0  0  0  0  0
   27.1407   -0.9326    9.5789 C   0  0  2  0  0  0  0  0  0  0  0  0
   28.1353    0.0301    5.3822 N   0  0  0  0  0  0  0  0  0  0  0  0
   25.7336   -2.3454   10.9139 O   0  0  0  0  0  0  0  0  0  0  0  0
   26.8223   -1.4179   10.9950 C   0  0  1  0  0  0  0  0  0  0  0  0
   28.7457    0.2484    8.1787 O   0  0  0  0  0  0  0  0  0  0  0  0
   28.0379   -2.1089   11.6172 C   0  0  1  0  0  0  0  0  0  0  0  0
   28.0484    2.4857    8.1885 O   0  0  0  0  0  0  0  0  0  0  0  0
   29.2432   -1.1628   11.6378 C   0  0  0  0  0  0  0  0  0  0  0  0
   31.1308    3.6720    6.5232 O   0  0  0  0  0  0  0  0  0  0  0  0
   29.5701   -0.7293   10.2060 C   0  0  1  0  0  0  0  0  0  0  0  0
   29.9880    2.0396    4.5084 O   0  0  0  0  0  0  0  0  0  0  0  0
   28.3805   -0.0308    9.5406 C   0  0  2  0  0  0  0  0  0  0  0  0
   27.8887    1.2105    7.5400 C   0  0  1  0  0  0  0  0  0  0  0  0
   29.3766    3.0366    8.0820 C   0  0  2  0  0  0  0  0  0  0  0  0
   29.4455    4.4040    8.7655 C   0  0  0  0  0  0  0  0  0  0  0  0
   29.7796    3.2101    6.6150 C   0  0  2  0  0  0  0  0  0  0  0  0
   29.6729    1.8668    5.8913 C   0  0  1  0  0  0  0  0  0  0  0  0
   28.2477    1.3317    6.0540 C   0  0  1  0  0  0  0  0  0  0  0  0
  5  4  1  1  0  0  0
  5  8  1  0  0  0  0
  5 16  1  0  0  0  0
  8  7  1  6  0  0  0
  8 10  1  0  0  0  0
 10  1  1  1  0  0  0
 10 12  1  0  0  0  0
 11 18  1  0  0  0  0
 12 14  1  0  0  0  0
 14  2  1  1  0  0  0
 14 16  1  0  0  0  0
 16  9  1  6  0  0  0
 17  9  1  1  0  0  0
 17 11  1  0  0  0  0
 17 22  1  0  0  0  0
 18 19  1  1  0  0  0
 18 20  1  0  0  0  0
 19  3  1  0  0  0  0
 20 13  1  1  0  0  0
 20 21  1  0  0  0  0
 21 15  1  6  0  0  0
 21 22  1  0  0  0  0
 22  6  1  1  0  0  0
M  END
>  <CHROM.1>
75.57845058,65.67681972,56.24746107,28.57637522,0.76708613,8.72708137,-2.18104765
-0.98819809,-1.33649029

>  <Name>
2fcx_lig

>  <RI>
224

>  <Rbt.Current_Directory>
/home/itssahil/PROJECTS/Mol_Feturizer/New_Systems/rnas/2fcx

>  <Rbt.Executable>
rbdock ($Id: //depot/dev/client3/rdock/2013.1/src/exe/rbdock.cxx#4 $)

>  <Rbt.Library>
libRbt.so (2013.1, Build901 2013/11/27)

>  <Rbt.Parameter_File>
/export/apps/rDock/src/rDock_2013.1_src/data/scripts/dock_solv.prm

>  <Rbt.Receptor>
prm/blind_docking_100.prm

>  <SCORE>
-14.2949

>  <SCORE.INTER>
-12.2995

>  <SCORE.INTER.CONST>
1

>  <SCORE.INTER.POLAR>
-1.93554

>  <SCORE.INTER.ROT>
3

>  <SCORE.INTER.SOLV>
19.9342

>  <SCORE.INTER.VDW>
-13.9926

>  <SCORE.INTER.norm>
-0.559069

>  <SCORE.INTRA>
-1.9954

>  <SCORE.INTRA.DIHEDRAL>
-3.53442

>  <SCORE.INTRA.DIHEDRAL.0>
4.88619

>  <SCORE.INTRA.POLAR>
0

>  <SCORE.INTRA.POLAR.0>
0

>  <SCORE.INTRA.REPUL>
0

>  <SCORE.INTRA.REPUL.0>
0

>  <SCORE.INTRA.SOLV>
-0.474874

>  <SCORE.INTRA.SOLV.lig_0>
-73.8187

>  <SCORE.INTRA.VDW>
0.00924961

>  <SCORE.INTRA.VDW.0>
-1.32335

>  <SCORE.INTRA.norm>
-0.0906999

>  <SCORE.RESTR>
0

>  <SCORE.RESTR.CAVITY>
0

>  <SCORE.RESTR.norm>
0

>  <SCORE.SYSTEM>
0

>  <SCORE.SYSTEM.CONST>
0

>  <SCORE.SYSTEM.DIHEDRAL>
0

>  <SCORE.SYSTEM.SOLV>
0

>  <SCORE.SYSTEM.norm>
0

>  <SCORE.heavy>
22

>  <SCORE.norm>
-0.649769

>  <RMSD>
12.487

$$$$
2fcx_lig
 OpenBabel11021811433D
libRbt.so/2013.1/901 2013/11/27
 22 23  0  0  0  0  0  0  0  0999 V2000
   28.3861   -2.6622   10.3114 N   0  0  0  0  0  0  0  0  0  0  0  0
   25.7638   -0.8775    6.5680 N   0  0  0  0  0  0  0  0  0  0  0  0
   29.6883    2.2810    6.9210 N   0  0  0  0  0  0  0  0  0  0  0  0
   27.2942    2.0902   10.1078 O   0  0  0  0  0  0  0  0  0  0  0  0
   26.8066    0.7744    9.8315 C   0  0  2  0  0  0  0  0  0  0  0  0
   23.3710    3.5287    7.5266 N   0  0  0  0  0  0  0  0  0  0  0  0
   28.0012   -0.1571   11.6925 O   0  0  0  0  0  0  0  0  0  0  0  0
   27.8363   -0.2679   10.2739 C   0  0  1  0  0  0  0  0  0  0  0  0
   25.3646    1.5222    8.0170 O   0  0  0  0  0  0  0  0  0  0  0  0
   27.3632   -1.6803    9.9224 C   0  0  1  0  0  0  0  0  0  0  0  0
   27.0722    3.0904    7.6757 O   0  0  0  0  0  0  0  0  0  0  0  0
   27.0976   -1.8005    8.4180 C   0  0  0  0  0  0  0  0  0  0  0  0
   26.6668    3.0433    3.9995 O   0  0  0  0  0  0  0  0  0  0  0  0
   26.0311   -0.7803    8.0099 C   0  0  1  0  0  0  0  0  0  0  0  0
   24.1750    4.1048    4.8329 O   0  0  0  0  0  0  0  0  0  0  0  0
   26.4610    0.6516    8.3424 C   0  0  2  0  0  0  0  0  0  0  0  0
   25.7015    2.9187    8.0807 C   0  0  1  0  0  0  0  0  0  0  0  0
   27.3347    2.7025    6.3121 C   0  0  2  0  0  0  0  0  0  0  0  0
   28.8024    2.9517    5.9577 C   0  0  0  0  0  0  0  0  0  0  0  0
   26.4618    3.5006    5.3398 C   0  0  2  0  0  0  0  0  0  0  0  0
   24.9874    3.3110    5.6998 C   0  0  1  0  0  0  0  0  0  0  0  0
   24.7796    3.7260    7.1588 C   0  0  1  0  0  0  0  0  0  0  0  0
  5  4  1  6  0  0  0
  5  8  1  0  0  0  0
  5 16  1  0  0  0  0
  8  7  1  1  0  0  0
  8 10  1  0  0  0  0
 10  1  1  6  0  0  0
 10 12  1  0  0  0  0
 11 18  1  0  0  0  0
 12 14  1  0  0  0  0
 14  2  1  6  0  0  0
 14 16  1  0  0  0  0
 16  9  1  1  0  0  0
 17  9  1  6  0  0  0
 17 11  1  0  0  0  0
 17 22  1  0  0  0  0
 18 19  1  6  0  0  0
 18 20  1  0  0  0  0
 19  3  1  0  0  0  0
 20 13  1  6  0  0  0
 20 21  1  0  0  0  0
 21 15  1  6  0  0  0
 21 22  1  0  0  0  0
 22  6  1  1  0  0  0
M  END
>  <CHROM.1>
68.84828379,33.71561532,54.42040643,26.61183005,1.48404520,7.76666567,-1.24858573
0.24621071,-0.85378226

>  <Name>
2fcx_lig

>  <RI>
224

>  <Rbt.Current_Directory>
/home/itssahil/PROJECTS/Mol_Feturizer/New_Systems/rnas/2fcx

>  <Rbt.Executable>
rbdock ($Id: //depot/dev/client3/rdock/2013.1/src/exe/rbdock.cxx#4 $)

>  <Rbt.Library>
libRbt.so (2013.1, Build901 2013/11/27)

>  <Rbt.Parameter_File>
/export/apps/rDock/src/rDock_2013.1_src/data/scripts/dock_solv.prm

>  <Rbt.Receptor>
prm/blind_docking_60.prm

>  <SCORE>
-15.3631

>  <SCORE.INTER>
-16.2436

>  <SCORE.INTER.CONST>
1

>  <SCORE.INTER.POLAR>
-2.49276

>  <SCORE.INTER.ROT>
3

>  <SCORE.INTER.SOLV>
11.9876

>  <SCORE.INTER.VDW>
-12.1158

>  <SCORE.INTER.norm>
-0.738348

>  <SCORE.INTRA>
0.880538

>  <SCORE.INTRA.DIHEDRAL>
-1.48056

>  <SCORE.INTRA.DIHEDRAL.0>
4.88619

>  <SCORE.INTRA.POLAR>
0

>  <SCORE.INTRA.POLAR.0>
0

>  <SCORE.INTRA.REPUL>
0

>  <SCORE.INTRA.REPUL.0>
0

>  <SCORE.INTRA.SOLV>
0.319164

>  <SCORE.INTRA.SOLV.lig_0>
-73.8187

>  <SCORE.INTRA.VDW>
1.46123

>  <SCORE.INTRA.VDW.0>
-1.32335

>  <SCORE.INTRA.norm>
0.0400245

>  <SCORE.RESTR>
0

>  <SCORE.RESTR.CAVITY>
0

>  <SCORE.RESTR.norm>
0

>  <SCORE.SYSTEM>
0

>  <SCORE.SYSTEM.CONST>
0

>  <SCORE.SYSTEM.DIHEDRAL>
0

>  <SCORE.SYSTEM.SOLV>
0

>  <SCORE.SYSTEM.norm>
0

>  <SCORE.heavy>
22

>  <SCORE.norm>
-0.698323

>  <RMSD>
12.504

$$$$
2fcx_lig
 OpenBabel11021811433D
libRbt.so/2013.1/901 2013/11/27
 22 23  0  0  0  0  0  0  0  0999 V2000
   27.9027   -2.5777   12.8245 N   0  0  0  0  0  0  0  0  0  0  0  0
   29.6610    1.2503   10.3086 N   0  0  0  0  0  0  0  0  0  0  0  0
   29.0988    4.2439   10.1978 N   0  0  0  0  0  0  0  0  0  0  0  0
   25.9786   -1.3702    8.5050 O   0  0  0  0  0  0  0  0  0  0  0  0
   27.1951   -1.4465    9.2531 C   0  0  2  0  0  0  0  0  0  0  0  0
   27.4479    0.3556    5.2614 N   0  0  0  0  0  0  0  0  0  0  0  0
   26.4322   -3.3687   10.4702 O   0  0  0  0  0  0  0  0  0  0  0  0
   26.9196   -2.0324   10.6399 C   0  0  1  0  0  0  0  0  0  0  0  0
   28.2499    0.3680    8.0177 O   0  0  0  0  0  0  0  0  0  0  0  0
   28.1976   -2.0569   11.4816 C   0  0  1  0  0  0  0  0  0  0  0  0
   27.7558    2.6527    8.1840 O   0  0  0  0  0  0  0  0  0  0  0  0
   28.7869   -0.6479   11.6072 C   0  0  0  0  0  0  0  0  0  0  0  0
   30.8203    3.6610    6.3747 O   0  0  0  0  0  0  0  0  0  0  0  0
   29.0969   -0.1033   10.2100 C   0  0  1  0  0  0  0  0  0  0  0  0
   29.4127    2.2446    4.3640 O   0  0  0  0  0  0  0  0  0  0  0  0
   27.8449   -0.0595    9.3289 C   0  0  2  0  0  0  0  0  0  0  0  0
   27.4431    1.4331    7.4861 C   0  0  1  0  0  0  0  0  0  0  0  0
   29.1182    3.0933    8.0152 C   0  0  2  0  0  0  0  0  0  0  0  0
   29.3509    4.4105    8.7586 C   0  0  0  0  0  0  0  0  0  0  0  0
   29.4419    3.3117    6.5347 C   0  0  2  0  0  0  0  0  0  0  0  0
   29.1713    2.0239    5.7549 C   0  0  1  0  0  0  0  0  0  0  0  0
   27.7173    1.6042    5.9870 C   0  0  1  0  0  0  0  0  0  0  0  0
  5  4  1  6  0  0  0
  5  8  1  0  0  0  0
  5 16  1  0  0  0  0
  8  7  1  6  0  0  0
  8 10  1  0  0  0  0
 10  1  1  1  0  0  0
 10 12  1  0  0  0  0
 11 18  1  0  0  0  0
 12 14  1  0  0  0  0
 14  2  1  1  0  0  0
 14 16  1  0  0  0  0
 16  9  1  6  0  0  0
 17  9  1  1  0  0  0
 17 11  1  0  0  0  0
 17 22  1  0  0  0  0
 18 19  1  1  0  0  0
 18 20  1  0  0  0  0
 19  3  1  0  0  0  0
 20 13  1  1  0  0  0
 20 21  1  0  0  0  0
 21 15  1  6  0  0  0
 21 22  1  0  0  0  0
 22  6  1  6  0  0  0
M  END
>  <CHROM.1>
108.74963775,72.57524603,60.31256411,28.31546244,0.77575632,8.58434634,-2.12731532
-1.06005991,-1.22219566

>  <Name>
2fcx_lig

>  <RI>
224

>  <Rbt.Current_Directory>
/home/itssahil/PROJECTS/Mol_Feturizer/New_Systems/rnas/2fcx

>  <Rbt.Executable>
rbdock ($Id: //depot/dev/client3/rdock/2013.1/src/exe/rbdock.cxx#4 $)

>  <Rbt.Library>
libRbt.so (2013.1, Build901 2013/11/27)

>  <Rbt.Parameter_File>
/export/apps/rDock/src/rDock_2013.1_src/data/scripts/dock_solv.prm

>  <Rbt.Receptor>
prm/blind_docking_100.prm

>  <SCORE>
-10.5093

>  <SCORE.INTER>
-12.4297

>  <SCORE.INTER.CONST>
1

>  <SCORE.INTER.POLAR>
-2.05673

>  <SCORE.INTER.ROT>
3

>  <SCORE.INTER.SOLV>
18.3935

>  <SCORE.INTER.VDW>
-13.1619

>  <SCORE.INTER.norm>
-0.564988

>  <SCORE.INTRA>
1.92045

>  <SCORE.INTRA.DIHEDRAL>
2.46734

>  <SCORE.INTRA.DIHEDRAL.0>
4.88619

>  <SCORE.INTRA.POLAR>
0

>  <SCORE.INTRA.POLAR.0>
0

>  <SCORE.INTRA.REPUL>
0

>  <SCORE.INTRA.REPUL.0>
0

>  <SCORE.INTRA.SOLV>
3.26887

>  <SCORE.INTRA.SOLV.lig_0>
-73.8187

>  <SCORE.INTRA.VDW>
-0.947655

>  <SCORE.INTRA.VDW.0>
-1.32335

>  <SCORE.INTRA.norm>
0.0872931

>  <SCORE.RESTR>
0

>  <SCORE.RESTR.CAVITY>
0

>  <SCORE.RESTR.norm>
0

>  <SCORE.SYSTEM>
0

>  <SCORE.SYSTEM.CONST>
0

>  <SCORE.SYSTEM.DIHEDRAL>
0

>  <SCORE.SYSTEM.SOLV>
0

>  <SCORE.SYSTEM.norm>
0

>  <SCORE.heavy>
22

>  <SCORE.norm>
-0.477695

>  <RMSD>
12.520

$$$$
2fcx_lig
 OpenBabel11021811433D
libRbt.so/2013.1/901 2013/11/27
 22 23  0  0  0  0  0  0  0  0999 V2000
   32.1875   -2.0877    9.1935 N   0  0  0  0  0  0  0  0  0  0  0  0
   29.1070    1.6964    9.7094 N   0  0  0  0  0  0  0  0  0  0  0  0
   25.0854   -0.9015    8.2783 N   0  0  0  0  0  0  0  0  0  0  0  0
   29.7345   -0.3604    5.3441 O   0  0  0  0  0  0  0  0  0  0  0  0
   30.3988    0.0057    6.5566 C   0  0  2  0  0  0  0  0  0  0  0  0
   28.0065    4.2896    5.5141 N   0  0  0  0  0  0  0  0  0  0  0  0
   31.9883   -1.7777    6.3308 O   0  0  0  0  0  0  0  0  0  0  0  0
   31.0020   -1.2361    7.2173 C   0  0  1  0  0  0  0  0  0  0  0  0
   29.0230    1.9867    6.8940 O   0  0  0  0  0  0  0  0  0  0  0  0
   31.6570   -0.8755    8.5526 C   0  0  1  0  0  0  0  0  0  0  0  0
   27.4414    0.6169    5.8385 O   0  0  0  0  0  0  0  0  0  0  0  0
   30.6405   -0.2151    9.4901 C   0  0  0  0  0  0  0  0  0  0  0  0
   24.6774    1.7855    8.0010 O   0  0  0  0  0  0  0  0  0  0  0  0
   30.0873    1.0490    8.8262 C   0  0  1  0  0  0  0  0  0  0  0  0
   25.3604    4.1621    6.6170 O   0  0  0  0  0  0  0  0  0  0  0  0
   29.4201    0.7373    7.4833 C   0  0  2  0  0  0  0  0  0  0  0  0
   28.2011    1.8343    5.7239 C   0  0  1  0  0  0  0  0  0  0  0  0
   26.5213    0.6011    6.9485 C   0  0  2  0  0  0  0  0  0  0  0  0
   25.7334   -0.7105    6.9721 C   0  0  0  0  0  0  0  0  0  0  0  0
   25.5256    1.7599    6.8488 C   0  0  2  0  0  0  0  0  0  0  0  0
   26.2861    3.0849    6.7734 C   0  0  1  0  0  0  0  0  0  0  0  0
   27.2521    3.0311    5.5868 C   0  0  1  0  0  0  0  0  0  0  0  0
  5  4  1  6  0  0  0
  5  8  1  0  0  0  0
  5 16  1  0  0  0  0
  8  7  1  6  0  0  0
  8 10  1  0  0  0  0
 10  1  1  1  0  0  0
 10 12  1  0  0  0  0
 11 18  1  0  0  0  0
 12 14  1  0  0  0  0
 14  2  1  1  0  0  0
 14 16  1  0  0  0  0
 16  9  1  6  0  0  0
 17  9  1  1  0  0  0
 17 11  1  0  0  0  0
 17 22  1  0  0  0  0
 18 19  1  6  0  0  0
 18 20  1  0  0  0  0
 19  3  1  0  0  0  0
 20 13  1  1  0  0  0
 20 21  1  0  0  0  0
 21 15  1  6  0  0  0
 21 22  1  0  0  0  0
 22  6  1  1  0  0  0
M  END
>  <CHROM.1>
68.56835288,29.75437205,164.09561451,28.40274729,0.84339646,7.19158726,0.56897921
-0.15863477,2.56935923

>  <Name>
2fcx_lig

>  <RI>
2.63278e+07

>  <Rbt.Current_Directory>
/home/itssahil/PROJECTS/Mol_Feturizer/New_Systems/rnas/2fcx

>  <Rbt.Executable>
rbdock ($Id: //depot/dev/client3/rdock/2013.1/src/exe/rbdock.cxx#4 $)

>  <Rbt.Library>
libRbt.so (2013.1, Build901 2013/11/27)

>  <Rbt.Parameter_File>
/export/apps/rDock/src/rDock_2013.1_src/data/scripts/dock_solv.prm

>  <Rbt.Receptor>
prm/blind_docking_40.prm

>  <SCORE>
-9.37766

>  <SCORE.INTER>
-11.9085

>  <SCORE.INTER.CONST>
1

>  <SCORE.INTER.POLAR>
-2.2765

>  <SCORE.INTER.ROT>
3

>  <SCORE.INTER.SOLV>
13.737

>  <SCORE.INTER.VDW>
-10.5297

>  <SCORE.INTER.norm>
-0.541297

>  <SCORE.INTRA>
2.53088

>  <SCORE.INTRA.DIHEDRAL>
-0.00721845

>  <SCORE.INTRA.DIHEDRAL.0>
4.88619

>  <SCORE.INTRA.POLAR>
0

>  <SCORE.INTRA.POLAR.0>
0

>  <SCORE.INTRA.REPUL>
0

>  <SCORE.INTRA.REPUL.0>
0

>  <SCORE.INTRA.SOLV>
0.483596

>  <SCORE.INTRA.SOLV.lig_0>
-73.8187

>  <SCORE.INTRA.VDW>
2.29269

>  <SCORE.INTRA.VDW.0>
-1.32335

>  <SCORE.INTRA.norm>
0.11504

>  <SCORE.RESTR>
0

>  <SCORE.RESTR.CAVITY>
0

>  <SCORE.RESTR.norm>
0

>  <SCORE.SYSTEM>
0

>  <SCORE.SYSTEM.CONST>
0

>  <SCORE.SYSTEM.DIHEDRAL>
0

>  <SCORE.SYSTEM.SOLV>
0

>  <SCORE.SYSTEM.norm>
0

>  <SCORE.heavy>
22

>  <SCORE.norm>
-0.426257

>  <RMSD>
12.555

$$$$
2fcx_lig
 OpenBabel11021811433D
libRbt.so/2013.1/901 2013/11/27
 22 23  0  0  0  0  0  0  0  0999 V2000
   28.1163    1.9277    1.5175 N   0  0  0  0  0  0  0  0  0  0  0  0
   26.2583    3.2097    5.8740 N   0  0  0  0  0  0  0  0  0  0  0  0
   30.8317   -2.5697    7.8829 N   0  0  0  0  0  0  0  0  0  0  0  0
   30.7499    1.3597    5.5870 O   0  0  0  0  0  0  0  0  0  0  0  0
   29.4313    1.2861    5.0381 C   0  0  2  0  0  0  0  0  0  0  0  0
   26.1576    1.0613    8.8550 N   0  0  0  0  0  0  0  0  0  0  0  0
   30.2626    0.5813    2.9003 O   0  0  0  0  0  0  0  0  0  0  0  0
   29.4718    1.5907    3.5388 C   0  0  1  0  0  0  0  0  0  0  0  0
   28.3523    1.8025    7.1595 O   0  0  0  0  0  0  0  0  0  0  0  0
   28.0606    1.5861    2.9465 C   0  0  1  0  0  0  0  0  0  0  0  0
   29.1146   -0.4132    7.1244 O   0  0  0  0  0  0  0  0  0  0  0  0
   27.1690    2.6000    3.6712 C   0  0  0  0  0  0  0  0  0  0  0  0
   30.5307   -0.2004   10.5348 O   0  0  0  0  0  0  0  0  0  0  0  0
   27.1074    2.2459    5.1597 C   0  0  1  0  0  0  0  0  0  0  0  0
   27.7639    0.1371   11.0458 O   0  0  0  0  0  0  0  0  0  0  0  0
   28.4997    2.2384    5.7978 C   0  0  2  0  0  0  0  0  0  0  0  0
   27.9555    0.4257    7.2821 C   0  0  1  0  0  0  0  0  0  0  0  0
   30.1214   -0.2207    8.1385 C   0  0  2  0  0  0  0  0  0  0  0  0
   31.2965   -1.1749    7.9142 C   0  0  0  0  0  0  0  0  0  0  0  0
   29.5477   -0.4820    9.5338 C   0  0  2  0  0  0  0  0  0  0  0  0
   28.3382    0.4241    9.7693 C   0  0  1  0  0  0  0  0  0  0  0  0
   27.3169    0.1814    8.6548 C   0  0  1  0  0  0  0  0  0  0  0  0
  5  4  1  1  0  0  0
  5  8  1  0  0  0  0
  5 16  1  0  0  0  0
  8  7  1  6  0  0  0
  8 10  1  0  0  0  0
 10  1  1  6  0  0  0
 10 12  1  0  0  0  0
 11 18  1  0  0  0  0
 12 14  1  0  0  0  0
 14  2  1  1  0  0  0
 14 16  1  0  0  0  0
 16  9  1  1  0  0  0
 17  9  1  1  0  0  0
 17 11  1  0  0  0  0
 17 22  1  0  0  0  0
 18 19  1  6  0  0  0
 18 20  1  0  0  0  0
 19  3  1  0  0  0  0
 20 13  1  1  0  0  0
 20 21  1  0  0  0  0
 21 15  1  1  0  0  0
 21 22  1  0  0  0  0
 22  6  1  1  0  0  0
M  END
>  <CHROM.1>
-52.70308683,80.70274096,-56.38996721,28.78067797,0.78592924,6.66363771,-1.71148522
-0.56539308,1.84154963

>  <Name>
2fcx_lig

>  <RI>
2.51704e+07

>  <Rbt.Current_Directory>
/home/itssahil/PROJECTS/Mol_Feturizer/New_Systems/rnas/2fcx

>  <Rbt.Executable>
rbdock ($Id: //depot/dev/client3/rdock/2013.1/src/exe/rbdock.cxx#4 $)

>  <Rbt.Library>
libRbt.so (2013.1, Build901 2013/11/27)

>  <Rbt.Parameter_File>
/export/apps/rDock/src/rDock_2013.1_src/data/scripts/dock_solv.prm

>  <Rbt.Receptor>
prm/blind_docking_80.prm

>  <SCORE>
-11.8689

>  <SCORE.INTER>
-12.8456

>  <SCORE.INTER.CONST>
1

>  <SCORE.INTER.POLAR>
-1.92296

>  <SCORE.INTER.ROT>
3

>  <SCORE.INTER.SOLV>
9.7309

>  <SCORE.INTER.VDW>
-10.9975

>  <SCORE.INTER.norm>
-0.583889

>  <SCORE.INTRA>
0.976686

>  <SCORE.INTRA.DIHEDRAL>
-2.65781

>  <SCORE.INTRA.DIHEDRAL.0>
4.88619

>  <SCORE.INTRA.POLAR>
0

>  <SCORE.INTRA.POLAR.0>
0

>  <SCORE.INTRA.REPUL>
0

>  <SCORE.INTRA.REPUL.0>
0

>  <SCORE.INTRA.SOLV>
2.27768

>  <SCORE.INTRA.SOLV.lig_0>
-73.8187

>  <SCORE.INTRA.VDW>
1.16675

>  <SCORE.INTRA.VDW.0>
-1.32335

>  <SCORE.INTRA.norm>
0.0443948

>  <SCORE.RESTR>
0

>  <SCORE.RESTR.CAVITY>
0

>  <SCORE.RESTR.norm>
0

>  <SCORE.SYSTEM>
0

>  <SCORE.SYSTEM.CONST>
0

>  <SCORE.SYSTEM.DIHEDRAL>
0

>  <SCORE.SYSTEM.SOLV>
0

>  <SCORE.SYSTEM.norm>
0

>  <SCORE.heavy>
22

>  <SCORE.norm>
-0.539494

>  <RMSD>
12.563

$$$$
2fcx_lig
 OpenBabel11021811433D
libRbt.so/2013.1/901 2013/11/27
 22 23  0  0  0  0  0  0  0  0999 V2000
   26.0492    4.7360    2.1046 N   0  0  0  0  0  0  0  0  0  0  0  0
   26.3840    2.8810    6.6347 N   0  0  0  0  0  0  0  0  0  0  0  0
   30.0693    4.6436    7.5523 N   0  0  0  0  0  0  0  0  0  0  0  0
   29.6182    1.6033    3.2306 O   0  0  0  0  0  0  0  0  0  0  0  0
   28.2435    1.9268    3.4568 C   0  0  2  0  0  0  0  0  0  0  0  0
   29.0809   -1.7063    6.3711 N   0  0  0  0  0  0  0  0  0  0  0  0
   27.9840    2.7811    1.2295 O   0  0  0  0  0  0  0  0  0  0  0  0
   27.8456    3.1379    2.6099 C   0  0  1  0  0  0  0  0  0  0  0  0
   28.2188    0.9445    5.6852 O   0  0  0  0  0  0  0  0  0  0  0  0
   26.3968    3.5433    2.8908 C   0  0  1  0  0  0  0  0  0  0  0  0
   30.2041    1.8464    6.5435 O   0  0  0  0  0  0  0  0  0  0  0  0
   26.2021    3.8486    4.3799 C   0  0  0  0  0  0  0  0  0  0  0  0
   29.1118    1.4505   10.0552 O   0  0  0  0  0  0  0  0  0  0  0  0
   26.5615    2.6075    5.2016 C   0  0  1  0  0  0  0  0  0  0  0  0
   29.2595   -1.2465    9.1979 O   0  0  0  0  0  0  0  0  0  0  0  0
   28.0061    2.1632    4.9533 C   0  0  2  0  0  0  0  0  0  0  0  0
   29.6039    0.6746    5.9613 C   0  0  1  0  0  0  0  0  0  0  0  0
   29.6357    2.2286    7.8123 C   0  0  2  0  0  0  0  0  0  0  0  0
   30.3553    3.4573    8.3729 C   0  0  0  0  0  0  0  0  0  0  0  0
   29.7588    1.0916    8.8303 C   0  0  2  0  0  0  0  0  0  0  0  0
   29.0906   -0.1678    8.2763 C   0  0  1  0  0  0  0  0  0  0  0  0
   29.7278   -0.5102    6.9270 C   0  0  1  0  0  0  0  0  0  0  0  0
  5  4  1  1  0  0  0
  5  8  1  0  0  0  0
  5 16  1  0  0  0  0
  8  7  1  6  0  0  0
  8 10  1  0  0  0  0
 10  1  1  6  0  0  0
 10 12  1  0  0  0  0
 11 18  1  0  0  0  0
 12 14  1  0  0  0  0
 14  2  1  1  0  0  0
 14 16  1  0  0  0  0
 16  9  1  1  0  0  0
 17  9  1  1  0  0  0
 17 11  1  0  0  0  0
 17 22  1  0  0  0  0
 18 19  1  1  0  0  0
 18 20  1  0  0  0  0
 19  3  1  0  0  0  0
 20 13  1  1  0  0  0
 20 21  1  0  0  0  0
 21 15  1  1  0  0  0
 21 22  1  0  0  0  0
 22  6  1  6  0  0  0
M  END
>  <CHROM.1>
81.46212209,50.35115365,68.34207526,28.54060383,1.88783748,5.84141306,2.85822031
1.19582112,-2.39321404

>  <Name>
2fcx_lig

>  <RI>
224

>  <Rbt.Current_Directory>
/home/itssahil/PROJECTS/Mol_Feturizer/New_Systems/rnas/2fcx

>  <Rbt.Executable>
rbdock ($Id: //depot/dev/client3/rdock/2013.1/src/exe/rbdock.cxx#4 $)

>  <Rbt.Library>
libRbt.so (2013.1, Build901 2013/11/27)

>  <Rbt.Parameter_File>
/export/apps/rDock/src/rDock_2013.1_src/data/scripts/dock_solv.prm

>  <Rbt.Receptor>
prm/blind_docking_100.prm

>  <SCORE>
-10.2479

>  <SCORE.INTER>
-9.25852

>  <SCORE.INTER.CONST>
1

>  <SCORE.INTER.POLAR>
-0.894427

>  <SCORE.INTER.ROT>
3

>  <SCORE.INTER.SOLV>
10.4418

>  <SCORE.INTER.VDW>
-12.2715

>  <SCORE.INTER.norm>
-0.420842

>  <SCORE.INTRA>
-1.01597

>  <SCORE.INTRA.DIHEDRAL>
-2.14162

>  <SCORE.INTRA.DIHEDRAL.0>
4.88619

>  <SCORE.INTRA.POLAR>
0

>  <SCORE.INTRA.POLAR.0>
0

>  <SCORE.INTRA.REPUL>
0

>  <SCORE.INTRA.REPUL.0>
0

>  <SCORE.INTRA.SOLV>
0.415269

>  <SCORE.INTRA.SOLV.lig_0>
-73.8187

>  <SCORE.INTRA.VDW>
-0.15279

>  <SCORE.INTRA.VDW.0>
-1.32335

>  <SCORE.INTRA.norm>
-0.0461803

>  <SCORE.RESTR>
0.0266134

>  <SCORE.RESTR.CAVITY>
0.0266134

>  <SCORE.RESTR.norm>
0.0012097

>  <SCORE.SYSTEM>
0

>  <SCORE.SYSTEM.CONST>
0

>  <SCORE.SYSTEM.DIHEDRAL>
0

>  <SCORE.SYSTEM.SOLV>
0

>  <SCORE.SYSTEM.norm>
0

>  <SCORE.heavy>
22

>  <SCORE.norm>
-0.465812

>  <RMSD>
12.585

$$$$
2fcx_lig
 OpenBabel11021811433D
libRbt.so/2013.1/901 2013/11/27
 22 23  0  0  0  0  0  0  0  0999 V2000
   33.6851   -2.4525    5.7150 N   0  0  0  0  0  0  0  0  0  0  0  0
   29.8346    0.5870    5.6187 N   0  0  0  0  0  0  0  0  0  0  0  0
   26.3812    4.1313    8.4908 N   0  0  0  0  0  0  0  0  0  0  0  0
   31.4913   -1.1171    9.8650 O   0  0  0  0  0  0  0  0  0  0  0  0
   31.2724   -1.4496    8.4913 C   0  0  2  0  0  0  0  0  0  0  0  0
   28.3932   -1.7886   10.4391 N   0  0  0  0  0  0  0  0  0  0  0  0
   33.0949   -3.0106    8.4847 O   0  0  0  0  0  0  0  0  0  0  0  0
   32.5971   -1.8376    7.8303 C   0  0  1  0  0  0  0  0  0  0  0  0
   29.2735   -0.0695    8.3154 O   0  0  0  0  0  0  0  0  0  0  0  0
   32.3950   -2.1291    6.3415 C   0  0  1  0  0  0  0  0  0  0  0  0
   29.0340    1.8098    9.6947 O   0  0  0  0  0  0  0  0  0  0  0  0
   31.7826   -0.9158    5.6335 C   0  0  0  0  0  0  0  0  0  0  0  0
   25.3492    1.8359    9.3734 O   0  0  0  0  0  0  0  0  0  0  0  0
   30.4376   -0.5774    6.2825 C   0  0  1  0  0  0  0  0  0  0  0  0
   25.7858   -0.6223   10.7140 O   0  0  0  0  0  0  0  0  0  0  0  0
   30.5898   -0.2770    7.7766 C   0  0  2  0  0  0  0  0  0  0  0  0
   29.2765    0.3909    9.6776 C   0  0  1  0  0  0  0  0  0  0  0  0
   27.7457    2.1918    9.1719 C   0  0  2  0  0  0  0  0  0  0  0  0
   27.5597    3.7081    9.2618 C   0  0  0  0  0  0  0  0  0  0  0  0
   26.6165    1.5201    9.9581 C   0  0  2  0  0  0  0  0  0  0  0  0
   26.8029    0.0023    9.9284 C   0  0  1  0  0  0  0  0  0  0  0  0
   28.1903   -0.3342   10.4815 C   0  0  1  0  0  0  0  0  0  0  0  0
  5  4  1  1  0  0  0
  5  8  1  0  0  0  0
  5 16  1  0  0  0  0
  8  7  1  1  0  0  0
  8 10  1  0  0  0  0
 10  1  1  6  0  0  0
 10 12  1  0  0  0  0
 11 18  1  0  0  0  0
 12 14  1  0  0  0  0
 14  2  1  6  0  0  0
 14 16  1  0  0  0  0
 16  9  1  1  0  0  0
 17  9  1  6  0  0  0
 17 11  1  0  0  0  0
 17 22  1  0  0  0  0
 18 19  1  1  0  0  0
 18 20  1  0  0  0  0
 19  3  1  0  0  0  0
 20 13  1  6  0  0  0
 20 21  1  0  0  0  0
 21 15  1  1  0  0  0
 21 22  1  0  0  0  0
 22  6  1  6  0  0  0
M  END
>  <CHROM.1>
67.12125528,101.35453237,168.51333783,29.41428905,-0.01764640,8.55650743
-0.10067083,0.65972948,-0.79099323

>  <Name>
2fcx_lig

>  <RI>
224

>  <Rbt.Current_Directory>
/home/itssahil/PROJECTS/Mol_Feturizer/New_Systems/rnas/2fcx

>  <Rbt.Executable>
rbdock ($Id: //depot/dev/client3/rdock/2013.1/src/exe/rbdock.cxx#4 $)

>  <Rbt.Library>
libRbt.so (2013.1, Build901 2013/11/27)

>  <Rbt.Parameter_File>
/export/apps/rDock/src/rDock_2013.1_src/data/scripts/dock_solv.prm

>  <Rbt.Receptor>
prm/blind_docking_60.prm

>  <SCORE>
-9.16199

>  <SCORE.INTER>
-11.2695

>  <SCORE.INTER.CONST>
1

>  <SCORE.INTER.POLAR>
-1.49008

>  <SCORE.INTER.ROT>
3

>  <SCORE.INTER.SOLV>
8.52534

>  <SCORE.INTER.VDW>
-10.9878

>  <SCORE.INTER.norm>
-0.51225

>  <SCORE.INTRA>
2.10608

>  <SCORE.INTRA.DIHEDRAL>
1.452

>  <SCORE.INTRA.DIHEDRAL.0>
4.88619

>  <SCORE.INTRA.POLAR>
0

>  <SCORE.INTRA.POLAR.0>
0

>  <SCORE.INTRA.REPUL>
0

>  <SCORE.INTRA.REPUL.0>
0

>  <SCORE.INTRA.SOLV>
1.28096

>  <SCORE.INTRA.SOLV.lig_0>
-73.8187

>  <SCORE.INTRA.VDW>
0.739598

>  <SCORE.INTRA.VDW.0>
-1.32335

>  <SCORE.INTRA.norm>
0.0957309

>  <SCORE.RESTR>
0.00142177

>  <SCORE.RESTR.CAVITY>
0.00142177

>  <SCORE.RESTR.norm>
6.46259e-05

>  <SCORE.SYSTEM>
0

>  <SCORE.SYSTEM.CONST>
0

>  <SCORE.SYSTEM.DIHEDRAL>
0

>  <SCORE.SYSTEM.SOLV>
0

>  <SCORE.SYSTEM.norm>
0

>  <SCORE.heavy>
22

>  <SCORE.norm>
-0.416454

>  <RMSD>
12.594

$$$$
2fcx_lig
 OpenBabel11021811433D
libRbt.so/2013.1/901 2013/11/27
 22 23  0  0  0  0  0  0  0  0999 V2000
   32.6116   -0.8045    3.0366 N   0  0  0  0  0  0  0  0  0  0  0  0
   28.7831    1.5134    5.0477 N   0  0  0  0  0  0  0  0  0  0  0  0
   29.1684    4.2868   10.1558 N   0  0  0  0  0  0  0  0  0  0  0  0
   31.7597   -1.1473    7.8298 O   0  0  0  0  0  0  0  0  0  0  0  0
   31.1396   -1.0706    6.5434 C   0  0  2  0  0  0  0  0  0  0  0  0
   28.1007   -1.5868    9.5811 N   0  0  0  0  0  0  0  0  0  0  0  0
   32.9412   -2.2666    5.5033 O   0  0  0  0  0  0  0  0  0  0  0  0
   32.2091   -1.0365    5.4491 C   0  0  1  0  0  0  0  0  0  0  0  0
   29.1223   -0.0145    7.4074 O   0  0  0  0  0  0  0  0  0  0  0  0
   31.5671   -0.8835    4.0683 C   0  0  1  0  0  0  0  0  0  0  0  0
   29.6571    1.7294    8.8785 O   0  0  0  0  0  0  0  0  0  0  0  0
   30.7078    0.3840    4.0115 C   0  0  0  0  0  0  0  0  0  0  0  0
   26.1396    2.8327    9.1812 O   0  0  0  0  0  0  0  0  0  0  0  0
   29.6176    0.3041    5.0838 C   0  0  1  0  0  0  0  0  0  0  0  0
   26.0257    0.2466   10.3341 O   0  0  0  0  0  0  0  0  0  0  0  0
   30.2134    0.1504    6.4863 C   0  0  2  0  0  0  0  0  0  0  0  0
   29.4643    0.3072    8.7665 C   0  0  1  0  0  0  0  0  0  0  0  0
   28.4761    2.5063    8.5943 C   0  0  2  0  0  0  0  0  0  0  0  0
   28.7618    3.9992    8.7722 C   0  0  0  0  0  0  0  0  0  0  0  0
   27.3295    2.1197    9.5324 C   0  0  2  0  0  0  0  0  0  0  0  0
   27.0527    0.6201    9.4136 C   0  0  1  0  0  0  0  0  0  0  0  0
   28.3451   -0.1442    9.7128 C   0  0  1  0  0  0  0  0  0  0  0  0
  5  4  1  1  0  0  0
  5  8  1  0  0  0  0
  5 16  1  0  0  0  0
  8  7  1  6  0  0  0
  8 10  1  0  0  0  0
 10  1  1  6  0  0  0
 10 12  1  0  0  0  0
 11 18  1  0  0  0  0
 12 14  1  0  0  0  0
 14  2  1  1  0  0  0
 14 16  1  0  0  0  0
 16  9  1  1  0  0  0
 17  9  1  6  0  0  0
 17 11  1  0  0  0  0
 17 22  1  0  0  0  0
 18 19  1  1  0  0  0
 18 20  1  0  0  0  0
 19  3  1  0  0  0  0
 20 13  1  6  0  0  0
 20 21  1  0  0  0  0
 21 15  1  1  0  0  0
 21 22  1  0  0  0  0
 22  6  1  6  0  0  0
M  END
>  <CHROM.1>
80.79485365,70.05990798,-60.66295705,29.49875304,0.54378215,7.45801000,-0.04185294
0.91353779,-0.48860807

>  <Name>
2fcx_lig

>  <RI>
2.63278e+07

>  <Rbt.Current_Directory>
/home/itssahil/PROJECTS/Mol_Feturizer/New_Systems/rnas/2fcx

>  <Rbt.Executable>
rbdock ($Id: //depot/dev/client3/rdock/2013.1/src/exe/rbdock.cxx#4 $)

>  <Rbt.Library>
libRbt.so (2013.1, Build901 2013/11/27)

>  <Rbt.Parameter_File>
/export/apps/rDock/src/rDock_2013.1_src/data/scripts/dock_solv.prm

>  <Rbt.Receptor>
prm/blind_docking_40.prm

>  <SCORE>
-10.9181

>  <SCORE.INTER>
-10.1886

>  <SCORE.INTER.CONST>
1

>  <SCORE.INTER.POLAR>
-1.32425

>  <SCORE.INTER.ROT>
3

>  <SCORE.INTER.SOLV>
12.6274

>  <SCORE.INTER.VDW>
-12.1873

>  <SCORE.INTER.norm>
-0.463116

>  <SCORE.INTRA>
-0.732955

>  <SCORE.INTRA.DIHEDRAL>
-2.45671

>  <SCORE.INTRA.DIHEDRAL.0>
4.88619

>  <SCORE.INTRA.POLAR>
0

>  <SCORE.INTRA.POLAR.0>
0

>  <SCORE.INTRA.REPUL>
0

>  <SCORE.INTRA.REPUL.0>
0

>  <SCORE.INTRA.SOLV>
1.29368

>  <SCORE.INTRA.SOLV.lig_0>
-73.8187

>  <SCORE.INTRA.VDW>
-0.15144

>  <SCORE.INTRA.VDW.0>
-1.32335

>  <SCORE.INTRA.norm>
-0.0333161

>  <SCORE.RESTR>
0.00342183

>  <SCORE.RESTR.CAVITY>
0.00342183

>  <SCORE.RESTR.norm>
0.000155538

>  <SCORE.SYSTEM>
0

>  <SCORE.SYSTEM.CONST>
0

>  <SCORE.SYSTEM.DIHEDRAL>
0

>  <SCORE.SYSTEM.SOLV>
0

>  <SCORE.SYSTEM.norm>
0

>  <SCORE.heavy>
22

>  <SCORE.norm>
-0.496277

>  <RMSD>
12.623

$$$$
2fcx_lig
 OpenBabel11021811433D
libRbt.so/2013.1/901 2013/11/27
 22 23  0  0  0  0  0  0  0  0999 V2000
   28.6330    2.5215    1.4918 N   0  0  0  0  0  0  0  0  0  0  0  0
   30.2331   -0.2822    5.1869 N   0  0  0  0  0  0  0  0  0  0  0  0
   31.5968   -2.2071    6.9983 N   0  0  0  0  0  0  0  0  0  0  0  0
   25.9657    2.0283    5.5491 O   0  0  0  0  0  0  0  0  0  0  0  0
   27.2989    2.1338    5.0422 C   0  0  2  0  0  0  0  0  0  0  0  0
   26.1915    0.8675    8.8627 N   0  0  0  0  0  0  0  0  0  0  0  0
   26.6015    3.5722    3.2526 O   0  0  0  0  0  0  0  0  0  0  0  0
   27.2667    2.3331    3.5251 C   0  0  1  0  0  0  0  0  0  0  0  0
   28.2625    0.8515    6.8749 O   0  0  0  0  0  0  0  0  0  0  0  0
   28.6859    2.3779    2.9541 C   0  0  1  0  0  0  0  0  0  0  0  0
   28.9013   -1.3112    7.5123 O   0  0  0  0  0  0  0  0  0  0  0  0
   29.4486    1.0961    3.3058 C   0  0  0  0  0  0  0  0  0  0  0  0
   30.6245   -0.1287   10.5641 O   0  0  0  0  0  0  0  0  0  0  0  0
   29.5072    0.9445    4.8284 C   0  0  1  0  0  0  0  0  0  0  0  0
   27.9357    0.5709   11.1219 O   0  0  0  0  0  0  0  0  0  0  0  0
   28.1068    0.8945    5.4466 C   0  0  2  0  0  0  0  0  0  0  0  0
   27.8065   -0.3776    7.4656 C   0  0  1  0  0  0  0  0  0  0  0  0
   30.0030   -0.8835    8.3382 C   0  0  2  0  0  0  0  0  0  0  0  0
   31.1017   -1.9485    8.3586 C   0  0  0  0  0  0  0  0  0  0  0  0
   29.5429   -0.6380    9.7778 C   0  0  2  0  0  0  0  0  0  0  0  0
   28.4083    0.3878    9.7860 C   0  0  1  0  0  0  0  0  0  0  0  0
   27.2806   -0.1182    8.8826 C   0  0  1  0  0  0  0  0  0  0  0  0
  5  4  1  6  0  0  0
  5  8  1  0  0  0  0
  5 16  1  0  0  0  0
  8  7  1  1  0  0  0
  8 10  1  0  0  0  0
 10  1  1  6  0  0  0
 10 12  1  0  0  0  0
 11 18  1  0  0  0  0
 12 14  1  0  0  0  0
 14  2  1  6  0  0  0
 14 16  1  0  0  0  0
 16  9  1  1  0  0  0
 17  9  1  1  0  0  0
 17 11  1  0  0  0  0
 17 22  1  0  0  0  0
 18 19  1  1  0  0  0
 18 20  1  0  0  0  0
 19  3  1  0  0  0  0
 20 13  1  1  0  0  0
 20 21  1  0  0  0  0
 21 15  1  1  0  0  0
 21 22  1  0  0  0  0
 22  6  1  6  0  0  0
M  END
>  <CHROM.1>
125.07868948,90.23878493,59.28456163,28.59478702,0.58597153,6.63027476,-1.83175616
-0.58529248,1.86121187

>  <Name>
2fcx_lig

>  <RI>
224

>  <Rbt.Current_Directory>
/home/itssahil/PROJECTS/Mol_Feturizer/New_Systems/rnas/2fcx

>  <Rbt.Executable>
rbdock ($Id: //depot/dev/client3/rdock/2013.1/src/exe/rbdock.cxx#4 $)

>  <Rbt.Library>
libRbt.so (2013.1, Build901 2013/11/27)

>  <Rbt.Parameter_File>
/export/apps/rDock/src/rDock_2013.1_src/data/scripts/dock_solv.prm

>  <Rbt.Receptor>
prm/blind_docking_100.prm

>  <SCORE>
-8.7083

>  <SCORE.INTER>
-12.4835

>  <SCORE.INTER.CONST>
1

>  <SCORE.INTER.POLAR>
-1.90666

>  <SCORE.INTER.ROT>
3

>  <SCORE.INTER.SOLV>
10.2271

>  <SCORE.INTER.VDW>
-10.9758

>  <SCORE.INTER.norm>
-0.567431

>  <SCORE.INTRA>
3.77518

>  <SCORE.INTRA.DIHEDRAL>
5.84078

>  <SCORE.INTRA.DIHEDRAL.0>
4.88619

>  <SCORE.INTRA.POLAR>
0

>  <SCORE.INTRA.POLAR.0>
0

>  <SCORE.INTRA.REPUL>
0

>  <SCORE.INTRA.REPUL.0>
0

>  <SCORE.INTRA.SOLV>
3.75684

>  <SCORE.INTRA.SOLV.lig_0>
-73.8187

>  <SCORE.INTRA.VDW>
-1.02363

>  <SCORE.INTRA.VDW.0>
-1.32335

>  <SCORE.INTRA.norm>
0.171599

>  <SCORE.RESTR>
0

>  <SCORE.RESTR.CAVITY>
0

>  <SCORE.RESTR.norm>
0

>  <SCORE.SYSTEM>
0

>  <SCORE.SYSTEM.CONST>
0

>  <SCORE.SYSTEM.DIHEDRAL>
0

>  <SCORE.SYSTEM.SOLV>
0

>  <SCORE.SYSTEM.norm>
0

>  <SCORE.heavy>
22

>  <SCORE.norm>
-0.395832

>  <RMSD>
12.696

$$$$
2fcx_lig
 OpenBabel11021811433D
libRbt.so/2013.1/901 2013/11/27
 22 23  0  0  0  0  0  0  0  0999 V2000
   33.1342   -1.3709    3.4647 N   0  0  0  0  0  0  0  0  0  0  0  0
   29.6334    1.9113    4.4879 N   0  0  0  0  0  0  0  0  0  0  0  0
   29.3217    4.2671   10.1588 N   0  0  0  0  0  0  0  0  0  0  0  0
   30.9262   -1.3939    7.8171 O   0  0  0  0  0  0  0  0  0  0  0  0
   30.7296   -1.1780    6.4171 C   0  0  2  0  0  0  0  0  0  0  0  0
   26.8070   -0.8554    8.2840 N   0  0  0  0  0  0  0  0  0  0  0  0
   32.3758   -2.8256    5.8395 O   0  0  0  0  0  0  0  0  0  0  0  0
   32.0318   -1.4468    5.6591 C   0  0  1  0  0  0  0  0  0  0  0  0
   28.8966    0.3887    6.7587 O   0  0  0  0  0  0  0  0  0  0  0  0
   31.8609   -1.1531    4.1669 C   0  0  1  0  0  0  0  0  0  0  0  0
   29.5263    1.6766    8.6125 O   0  0  0  0  0  0  0  0  0  0  0  0
   31.4096    0.2954    3.9514 C   0  0  0  0  0  0  0  0  0  0  0  0
   26.6680    3.9940    8.2369 O   0  0  0  0  0  0  0  0  0  0  0  0
   30.0825    0.5251    4.6800 C   0  0  1  0  0  0  0  0  0  0  0  0
   25.3497    1.5560    8.8275 O   0  0  0  0  0  0  0  0  0  0  0  0
   30.2045    0.2433    6.1805 C   0  0  2  0  0  0  0  0  0  0  0  0
   28.9069    0.4458    8.1955 C   0  0  1  0  0  0  0  0  0  0  0  0
   28.8187    2.8613    8.1945 C   0  0  2  0  0  0  0  0  0  0  0  0
   29.5254    4.1168    8.7102 C   0  0  0  0  0  0  0  0  0  0  0  0
   27.3853    2.8594    8.7327 C   0  0  2  0  0  0  0  0  0  0  0  0
   26.6667    1.5894    8.2742 C   0  0  1  0  0  0  0  0  0  0  0  0
   27.4736    0.3731    8.7362 C   0  0  1  0  0  0  0  0  0  0  0  0
  5  4  1  1  0  0  0
  5  8  1  0  0  0  0
  5 16  1  0  0  0  0
  8  7  1  6  0  0  0
  8 10  1  0  0  0  0
 10  1  1  6  0  0  0
 10 12  1  0  0  0  0
 11 18  1  0  0  0  0
 12 14  1  0  0  0  0
 14  2  1  1  0  0  0
 14 16  1  0  0  0  0
 16  9  1  1  0  0  0
 17  9  1  6  0  0  0
 17 11  1  0  0  0  0
 17 22  1  0  0  0  0
 18 19  1  1  0  0  0
 18 20  1  0  0  0  0
 19  3  1  0  0  0  0
 20 13  1  6  0  0  0
 20 21  1  0  0  0  0
 21 15  1  1  0  0  0
 21 22  1  0  0  0  0
 22  6  1  6  0  0  0
M  END
>  <CHROM.1>
72.64237942,68.40401295,-72.97431476,29.42473739,0.76782191,7.04603774,-0.60617959
0.70204623,0.03892631

>  <Name>
2fcx_lig

>  <RI>
2.63278e+07

>  <Rbt.Current_Directory>
/home/itssahil/PROJECTS/Mol_Feturizer/New_Systems/rnas/2fcx

>  <Rbt.Executable>
rbdock ($Id: //depot/dev/client3/rdock/2013.1/src/exe/rbdock.cxx#4 $)

>  <Rbt.Library>
libRbt.so (2013.1, Build901 2013/11/27)

>  <Rbt.Parameter_File>
/export/apps/rDock/src/rDock_2013.1_src/data/scripts/dock_solv.prm

>  <Rbt.Receptor>
prm/blind_docking_40.prm

>  <SCORE>
-15.7543

>  <SCORE.INTER>
-15.1441

>  <SCORE.INTER.CONST>
1

>  <SCORE.INTER.POLAR>
-2.31223

>  <SCORE.INTER.ROT>
3

>  <SCORE.INTER.SOLV>
13.3521

>  <SCORE.INTER.VDW>
-12.4393

>  <SCORE.INTER.norm>
-0.688367

>  <SCORE.INTRA>
-0.61021

>  <SCORE.INTRA.DIHEDRAL>
-3.18325

>  <SCORE.INTRA.DIHEDRAL.0>
4.88619

>  <SCORE.INTRA.POLAR>
0

>  <SCORE.INTRA.POLAR.0>
0

>  <SCORE.INTRA.REPUL>
0

>  <SCORE.INTRA.REPUL.0>
0

>  <SCORE.INTRA.SOLV>
0.969756

>  <SCORE.INTRA.SOLV.lig_0>
-73.8187

>  <SCORE.INTRA.VDW>
0.496536

>  <SCORE.INTRA.VDW.0>
-1.32335

>  <SCORE.INTRA.norm>
-0.0277368

>  <SCORE.RESTR>
0

>  <SCORE.RESTR.CAVITY>
0

>  <SCORE.RESTR.norm>
0

>  <SCORE.SYSTEM>
0

>  <SCORE.SYSTEM.CONST>
0

>  <SCORE.SYSTEM.DIHEDRAL>
0

>  <SCORE.SYSTEM.SOLV>
0

>  <SCORE.SYSTEM.norm>
0

>  <SCORE.heavy>
22

>  <SCORE.norm>
-0.716103

>  <RMSD>
12.754

$$$$
2fcx_lig
 OpenBabel11021811433D
libRbt.so/2013.1/901 2013/11/27
 22 23  0  0  0  0  0  0  0  0999 V2000
   33.1671   -1.4247    3.4948 N   0  0  0  0  0  0  0  0  0  0  0  0
   29.6922    1.8923    4.4933 N   0  0  0  0  0  0  0  0  0  0  0  0
   29.3187    4.2410   10.1750 N   0  0  0  0  0  0  0  0  0  0  0  0
   30.9313   -1.4230    7.8330 O   0  0  0  0  0  0  0  0  0  0  0  0
   30.7458   -1.2062    6.4316 C   0  0  2  0  0  0  0  0  0  0  0  0
   26.8372   -0.8853    8.2705 N   0  0  0  0  0  0  0  0  0  0  0  0
   32.3794   -2.8703    5.8657 O   0  0  0  0  0  0  0  0  0  0  0  0
   32.0501   -1.4883    5.6822 C   0  0  1  0  0  0  0  0  0  0  0  0
   28.9260    0.3786    6.7604 O   0  0  0  0  0  0  0  0  0  0  0  0
   31.8916   -1.1940    4.1887 C   0  0  1  0  0  0  0  0  0  0  0  0
   29.5344    1.6673    8.6207 O   0  0  0  0  0  0  0  0  0  0  0  0
   31.4559    0.2587    3.9693 C   0  0  0  0  0  0  0  0  0  0  0  0
   26.6603    3.9630    8.2329 O   0  0  0  0  0  0  0  0  0  0  0  0
   30.1265    0.5019    4.6893 C   0  0  1  0  0  0  0  0  0  0  0  0
   25.3578    1.5135    8.8104 O   0  0  0  0  0  0  0  0  0  0  0  0
   30.2361    0.2200    6.1907 C   0  0  2  0  0  0  0  0  0  0  0  0
   28.9273    0.4326    8.1973 C   0  0  1  0  0  0  0  0  0  0  0  0
   28.8201    2.8473    8.2010 C   0  0  2  0  0  0  0  0  0  0  0  0
   29.5137    4.1073    8.7236 C   0  0  0  0  0  0  0  0  0  0  0  0
   27.3835    2.8330    8.7305 C   0  0  2  0  0  0  0  0  0  0  0  0
   26.6777    1.5584    8.2651 C   0  0  1  0  0  0  0  0  0  0  0  0
   27.4914    0.3475    8.7293 C   0  0  1  0  0  0  0  0  0  0  0  0
  5  4  1  1  0  0  0
  5  8  1  0  0  0  0
  5 16  1  0  0  0  0
  8  7  1  6  0  0  0
  8 10  1  0  0  0  0
 10  1  1  6  0  0  0
 10 12  1  0  0  0  0
 11 18  1  0  0  0  0
 12 14  1  0  0  0  0
 14  2  1  1  0  0  0
 14 16  1  0  0  0  0
 16  9  1  1  0  0  0
 17  9  1  6  0  0  0
 17 11  1  0  0  0  0
 17 22  1  0  0  0  0
 18 19  1  1  0  0  0
 18 20  1  0  0  0  0
 19  3  1  0  0  0  0
 20 13  1  6  0  0  0
 20 21  1  0  0  0  0
 21 15  1  1  0  0  0
 21 22  1  0  0  0  0
 22  6  1  6  0  0  0
M  END
>  <CHROM.1>
72.46800722,69.48535423,-72.05042753,29.44203274,0.74010280,7.05366513,-0.60760713
0.69802878,0.03753985

>  <Name>
2fcx_lig

>  <RI>
2.63278e+07

>  <Rbt.Current_Directory>
/home/itssahil/PROJECTS/Mol_Feturizer/New_Systems/rnas/2fcx

>  <Rbt.Executable>
rbdock ($Id: //depot/dev/client3/rdock/2013.1/src/exe/rbdock.cxx#4 $)

>  <Rbt.Library>
libRbt.so (2013.1, Build901 2013/11/27)

>  <Rbt.Parameter_File>
/export/apps/rDock/src/rDock_2013.1_src/data/scripts/dock_solv.prm

>  <Rbt.Receptor>
prm/blind_docking_40.prm

>  <SCORE>
-15.6959

>  <SCORE.INTER>
-15.1083

>  <SCORE.INTER.CONST>
1

>  <SCORE.INTER.POLAR>
-2.31413

>  <SCORE.INTER.ROT>
3

>  <SCORE.INTER.SOLV>
13.375

>  <SCORE.INTER.VDW>
-12.4168

>  <SCORE.INTER.norm>
-0.686742

>  <SCORE.INTRA>
-0.587542

>  <SCORE.INTRA.DIHEDRAL>
-3.18937

>  <SCORE.INTRA.DIHEDRAL.0>
4.88619

>  <SCORE.INTRA.POLAR>
0

>  <SCORE.INTRA.POLAR.0>
0

>  <SCORE.INTRA.REPUL>
0

>  <SCORE.INTRA.REPUL.0>
0

>  <SCORE.INTRA.SOLV>
0.982742

>  <SCORE.INTRA.SOLV.lig_0>
-73.8187

>  <SCORE.INTRA.VDW>
0.515771

>  <SCORE.INTRA.VDW.0>
-1.32335

>  <SCORE.INTRA.norm>
-0.0267065

>  <SCORE.RESTR>
0

>  <SCORE.RESTR.CAVITY>
0

>  <SCORE.RESTR.norm>
0

>  <SCORE.SYSTEM>
0

>  <SCORE.SYSTEM.CONST>
0

>  <SCORE.SYSTEM.DIHEDRAL>
0

>  <SCORE.SYSTEM.SOLV>
0

>  <SCORE.SYSTEM.norm>
0

>  <SCORE.heavy>
22

>  <SCORE.norm>
-0.713448

>  <RMSD>
12.772

$$$$
2fcx_lig
 OpenBabel11021811433D
libRbt.so/2013.1/901 2013/11/27
 22 23  0  0  0  0  0  0  0  0999 V2000
   31.4477    0.0312   10.6062 N   0  0  0  0  0  0  0  0  0  0  0  0
   29.2472    3.6168    8.0813 N   0  0  0  0  0  0  0  0  0  0  0  0
   25.0321    1.8279    7.9768 N   0  0  0  0  0  0  0  0  0  0  0  0
   29.1348   -0.9570    6.4237 O   0  0  0  0  0  0  0  0  0  0  0  0
   29.9431    0.0076    7.1032 C   0  0  2  0  0  0  0  0  0  0  0  0
   29.1682    1.8606    2.9846 N   0  0  0  0  0  0  0  0  0  0  0  0
   31.1158   -1.6971    8.3184 O   0  0  0  0  0  0  0  0  0  0  0  0
   30.3252   -0.5150    8.4901 C   0  0  1  0  0  0  0  0  0  0  0  0
   29.0270    1.8853    5.8517 O   0  0  0  0  0  0  0  0  0  0  0  0
   31.1319    0.5327    9.2607 C   0  0  1  0  0  0  0  0  0  0  0  0
   26.7771    1.2341    5.7780 O   0  0  0  0  0  0  0  0  0  0  0  0
   30.3396    1.8386    9.3843 C   0  0  0  0  0  0  0  0  0  0  0  0
   25.6143    4.6104    4.8139 O   0  0  0  0  0  0  0  0  0  0  0  0
   30.0106    2.3647    7.9844 C   0  0  1  0  0  0  0  0  0  0  0  0
   27.1763    3.8829    2.5642 O   0  0  0  0  0  0  0  0  0  0  0  0
   29.2015    1.3481    7.1734 C   0  0  2  0  0  0  0  0  0  0  0  0
   28.0335    1.1925    5.0766 C   0  0  1  0  0  0  0  0  0  0  0  0
   26.2505    2.5637    5.9614 C   0  0  2  0  0  0  0  0  0  0  0  0
   24.9010    2.5106    6.6809 C   0  0  0  0  0  0  0  0  0  0  0  0
   26.0511    3.2626    4.6138 C   0  0  2  0  0  0  0  0  0  0  0  0
   27.3749    3.2874    3.8478 C   0  0  1  0  0  0  0  0  0  0  0  0
   27.8850    1.8515    3.6999 C   0  0  1  0  0  0  0  0  0  0  0  0
  5  4  1  1  0  0  0
  5  8  1  0  0  0  0
  5 16  1  0  0  0  0
  8  7  1  6  0  0  0
  8 10  1  0  0  0  0
 10  1  1  1  0  0  0
 10 12  1  0  0  0  0
 11 18  1  0  0  0  0
 12 14  1  0  0  0  0
 14  2  1  1  0  0  0
 14 16  1  0  0  0  0
 16  9  1  6  0  0  0
 17  9  1  1  0  0  0
 17 11  1  0  0  0  0
 17 22  1  0  0  0  0
 18 19  1  6  0  0  0
 18 20  1  0  0  0  0
 19  3  1  0  0  0  0
 20 13  1  1  0  0  0
 20 21  1  0  0  0  0
 21 15  1  6  0  0  0
 21 22  1  0  0  0  0
 22  6  1  1  0  0  0
M  END
>  <CHROM.1>
73.20339021,57.80003322,57.45939738,28.40042303,1.65677794,6.45751197,0.74157836
-0.60011350,1.62457479

>  <Name>
2fcx_lig

>  <RI>
2.51704e+07

>  <Rbt.Current_Directory>
/home/itssahil/PROJECTS/Mol_Feturizer/New_Systems/rnas/2fcx

>  <Rbt.Executable>
rbdock ($Id: //depot/dev/client3/rdock/2013.1/src/exe/rbdock.cxx#4 $)

>  <Rbt.Library>
libRbt.so (2013.1, Build901 2013/11/27)

>  <Rbt.Parameter_File>
/export/apps/rDock/src/rDock_2013.1_src/data/scripts/dock_solv.prm

>  <Rbt.Receptor>
prm/blind_docking_80.prm

>  <SCORE>
-11.3803

>  <SCORE.INTER>
-9.28189

>  <SCORE.INTER.CONST>
1

>  <SCORE.INTER.POLAR>
-0.938083

>  <SCORE.INTER.ROT>
3

>  <SCORE.INTER.SOLV>
13.0337

>  <SCORE.INTER.VDW>
-13.0056

>  <SCORE.INTER.norm>
-0.421904

>  <SCORE.INTRA>
-2.09944

>  <SCORE.INTRA.DIHEDRAL>
-4.00249

>  <SCORE.INTRA.DIHEDRAL.0>
4.88619

>  <SCORE.INTRA.POLAR>
0

>  <SCORE.INTRA.POLAR.0>
0

>  <SCORE.INTRA.REPUL>
0

>  <SCORE.INTRA.REPUL.0>
0

>  <SCORE.INTRA.SOLV>
-0.607686

>  <SCORE.INTRA.SOLV.lig_0>
-73.8187

>  <SCORE.INTRA.VDW>
0.205643

>  <SCORE.INTRA.VDW.0>
-1.32335

>  <SCORE.INTRA.norm>
-0.0954293

>  <SCORE.RESTR>
0.00100005

>  <SCORE.RESTR.CAVITY>
0.00100005

>  <SCORE.RESTR.norm>
4.5457e-05

>  <SCORE.SYSTEM>
0

>  <SCORE.SYSTEM.CONST>
0

>  <SCORE.SYSTEM.DIHEDRAL>
0

>  <SCORE.SYSTEM.SOLV>
0

>  <SCORE.SYSTEM.norm>
0

>  <SCORE.heavy>
22

>  <SCORE.norm>
-0.517288

>  <RMSD>
12.809

$$$$
2fcx_lig
 OpenBabel11021811433D
libRbt.so/2013.1/901 2013/11/27
 22 23  0  0  0  0  0  0  0  0999 V2000
   32.4165    0.2950    3.2735 N   0  0  0  0  0  0  0  0  0  0  0  0
   31.6703   -2.9864    6.8442 N   0  0  0  0  0  0  0  0  0  0  0  0
   29.1742    3.4153    9.5571 N   0  0  0  0  0  0  0  0  0  0  0  0
   28.2329    0.2917    5.7869 O   0  0  0  0  0  0  0  0  0  0  0  0
   29.6450    0.0863    5.8833 C   0  0  2  0  0  0  0  0  0  0  0  0
   29.7756   -2.5234   10.3923 N   0  0  0  0  0  0  0  0  0  0  0  0
   30.0912    1.7343    4.1971 O   0  0  0  0  0  0  0  0  0  0  0  0
   30.3059    0.3576    4.5298 C   0  0  1  0  0  0  0  0  0  0  0  0
   29.4468   -1.4786    7.7388 O   0  0  0  0  0  0  0  0  0  0  0  0
   31.8087    0.0751    4.5941 C   0  0  1  0  0  0  0  0  0  0  0  0
   30.1380    0.6431    8.4545 O   0  0  0  0  0  0  0  0  0  0  0  0
   32.0666   -1.3708    5.0314 C   0  0  0  0  0  0  0  0  0  0  0  0
   26.9030    1.3749   10.0919 O   0  0  0  0  0  0  0  0  0  0  0  0
   31.4364   -1.6027    6.4076 C   0  0  1  0  0  0  0  0  0  0  0  0
   27.8418   -0.8072   11.6370 O   0  0  0  0  0  0  0  0  0  0  0  0
   29.9290   -1.3321    6.3926 C   0  0  2  0  0  0  0  0  0  0  0  0
   30.2343   -0.7701    8.7113 C   0  0  1  0  0  0  0  0  0  0  0  0
   28.8049    1.1753    8.5907 C   0  0  2  0  0  0  0  0  0  0  0  0
   28.8024    2.6844    8.3365 C   0  0  0  0  0  0  0  0  0  0  0  0
   28.2574    0.9227    9.9981 C   0  0  2  0  0  0  0  0  0  0  0  0
   28.2935   -0.5761   10.3013 C   0  0  1  0  0  0  0  0  0  0  0  0
   29.7286   -1.0795   10.1256 C   0  0  1  0  0  0  0  0  0  0  0  0
  5  4  1  6  0  0  0
  5  8  1  0  0  0  0
  5 16  1  0  0  0  0
  8  7  1  1  0  0  0
  8 10  1  0  0  0  0
 10  1  1  6  0  0  0
 10 12  1  0  0  0  0
 11 18  1  0  0  0  0
 12 14  1  0  0  0  0
 14  2  1  6  0  0  0
 14 16  1  0  0  0  0
 16  9  1  1  0  0  0
 17  9  1  6  0  0  0
 17 11  1  0  0  0  0
 17 22  1  0  0  0  0
 18 19  1  1  0  0  0
 18 20  1  0  0  0  0
 19  3  1  0  0  0  0
 20 13  1  6  0  0  0
 20 21  1  0  0  0  0
 21 15  1  1  0  0  0
 21 22  1  0  0  0  0
 22  6  1  6  0  0  0
M  END
>  <CHROM.1>
-71.95146797,64.35075403,-83.78539584,29.73223579,-0.04630139,7.60152919
0.59778883,0.98859173,-0.77858569

>  <Name>
2fcx_lig

>  <RI>
224

>  <Rbt.Current_Directory>
/home/itssahil/PROJECTS/Mol_Feturizer/New_Systems/rnas/2fcx

>  <Rbt.Executable>
rbdock ($Id: //depot/dev/client3/rdock/2013.1/src/exe/rbdock.cxx#4 $)

>  <Rbt.Library>
libRbt.so (2013.1, Build901 2013/11/27)

>  <Rbt.Parameter_File>
/export/apps/rDock/src/rDock_2013.1_src/data/scripts/dock_solv.prm

>  <Rbt.Receptor>
prm/blind_docking_60.prm

>  <SCORE>
-10.8771

>  <SCORE.INTER>
-13.388

>  <SCORE.INTER.CONST>
1

>  <SCORE.INTER.POLAR>
-1.7534

>  <SCORE.INTER.ROT>
3

>  <SCORE.INTER.SOLV>
9.45502

>  <SCORE.INTER.VDW>
-11.8323

>  <SCORE.INTER.norm>
-0.608545

>  <SCORE.INTRA>
2.51088

>  <SCORE.INTRA.DIHEDRAL>
-2.3011

>  <SCORE.INTRA.DIHEDRAL.0>
4.88619

>  <SCORE.INTRA.POLAR>
0

>  <SCORE.INTRA.POLAR.0>
0

>  <SCORE.INTRA.REPUL>
0

>  <SCORE.INTRA.REPUL.0>
0

>  <SCORE.INTRA.SOLV>
2.18502

>  <SCORE.INTRA.SOLV.lig_0>
-73.8187

>  <SCORE.INTRA.VDW>
2.56892

>  <SCORE.INTRA.VDW.0>
-1.32335

>  <SCORE.INTRA.norm>
0.114131

>  <SCORE.RESTR>
0

>  <SCORE.RESTR.CAVITY>
0

>  <SCORE.RESTR.norm>
0

>  <SCORE.SYSTEM>
0

>  <SCORE.SYSTEM.CONST>
0

>  <SCORE.SYSTEM.DIHEDRAL>
0

>  <SCORE.SYSTEM.SOLV>
0

>  <SCORE.SYSTEM.norm>
0

>  <SCORE.heavy>
22

>  <SCORE.norm>
-0.494414

>  <RMSD>
12.817

$$$$
2fcx_lig
 OpenBabel11021811433D
libRbt.so/2013.1/901 2013/11/27
 22 23  0  0  0  0  0  0  0  0999 V2000
   27.8719    5.2103    0.6611 N   0  0  0  0  0  0  0  0  0  0  0  0
   26.1255    4.4668    5.1857 N   0  0  0  0  0  0  0  0  0  0  0  0
   28.0592    2.9657    9.7134 N   0  0  0  0  0  0  0  0  0  0  0  0
   28.7154    0.9939    2.9695 O   0  0  0  0  0  0  0  0  0  0  0  0
   27.7519    2.0299    2.7601 C   0  0  2  0  0  0  0  0  0  0  0  0
   25.8056   -1.0183    5.0516 N   0  0  0  0  0  0  0  0  0  0  0  0
   28.5023    2.3977    0.5107 O   0  0  0  0  0  0  0  0  0  0  0  0
   28.2976    3.0574    1.7656 C   0  0  1  0  0  0  0  0  0  0  0  0
   26.7024    1.7061    4.9338 O   0  0  0  0  0  0  0  0  0  0  0  0
   27.3094    4.2115    1.5818 C   0  0  1  0  0  0  0  0  0  0  0  0
   28.4406    1.2319    6.4323 O   0  0  0  0  0  0  0  0  0  0  0  0
   27.0075    4.8814    2.9266 C   0  0  0  0  0  0  0  0  0  0  0  0
   26.1820    1.1783    9.3610 O   0  0  0  0  0  0  0  0  0  0  0  0
   26.4197    3.8440    3.8874 C   0  0  1  0  0  0  0  0  0  0  0  0
   25.2203   -1.0250    7.8608 O   0  0  0  0  0  0  0  0  0  0  0  0
   27.3755    2.6670    4.1033 C   0  0  2  0  0  0  0  0  0  0  0  0
   27.5681    0.6723    5.4334 C   0  0  1  0  0  0  0  0  0  0  0  0
   27.7538    1.7405    7.5936 C   0  0  2  0  0  0  0  0  0  0  0  0
   28.7571    2.2811    8.6148 C   0  0  0  0  0  0  0  0  0  0  0  0
   26.9280    0.6399    8.2651 C   0  0  2  0  0  0  0  0  0  0  0  0
   25.9475    0.0444    7.2533 C   0  0  1  0  0  0  0  0  0  0  0  0
   26.7364   -0.4627    6.0431 C   0  0  1  0  0  0  0  0  0  0  0  0
  5  4  1  1  0  0  0
  5  8  1  0  0  0  0
  5 16  1  0  0  0  0
  8  7  1  6  0  0  0
  8 10  1  0  0  0  0
 10  1  1  6  0  0  0
 10 12  1  0  0  0  0
 11 18  1  0  0  0  0
 12 14  1  0  0  0  0
 14  2  1  1  0  0  0
 14 16  1  0  0  0  0
 16  9  1  1  0  0  0
 17  9  1  1  0  0  0
 17 11  1  0  0  0  0
 17 22  1  0  0  0  0
 18 19  1  1  0  0  0
 18 20  1  0  0  0  0
 19  3  1  0  0  0  0
 20 13  1  1  0  0  0
 20 21  1  0  0  0  0
 21 15  1  1  0  0  0
 21 22  1  0  0  0  0
 22  6  1  6  0  0  0
M  END
>  <CHROM.1>
71.07798363,71.62174750,172.22368990,27.25208119,1.95681486,5.14884812,-0.86516406
1.36250930,1.29263838

>  <Name>
2fcx_lig

>  <RI>
224

>  <Rbt.Current_Directory>
/home/itssahil/PROJECTS/Mol_Feturizer/New_Systems/rnas/2fcx

>  <Rbt.Executable>
rbdock ($Id: //depot/dev/client3/rdock/2013.1/src/exe/rbdock.cxx#4 $)

>  <Rbt.Library>
libRbt.so (2013.1, Build901 2013/11/27)

>  <Rbt.Parameter_File>
/export/apps/rDock/src/rDock_2013.1_src/data/scripts/dock_solv.prm

>  <Rbt.Receptor>
prm/blind_docking_60.prm

>  <SCORE>
-12.1125

>  <SCORE.INTER>
-11.3909

>  <SCORE.INTER.CONST>
1

>  <SCORE.INTER.POLAR>
-1.22834

>  <SCORE.INTER.ROT>
3

>  <SCORE.INTER.SOLV>
17.525

>  <SCORE.INTER.VDW>
-14.9411

>  <SCORE.INTER.norm>
-0.517766

>  <SCORE.INTRA>
-0.723866

>  <SCORE.INTRA.DIHEDRAL>
-3.42335

>  <SCORE.INTRA.DIHEDRAL.0>
4.88619

>  <SCORE.INTRA.POLAR>
0

>  <SCORE.INTRA.POLAR.0>
0

>  <SCORE.INTRA.REPUL>
0

>  <SCORE.INTRA.REPUL.0>
0

>  <SCORE.INTRA.SOLV>
0.557156

>  <SCORE.INTRA.SOLV.lig_0>
-73.8187

>  <SCORE.INTRA.VDW>
0.709232

>  <SCORE.INTRA.VDW.0>
-1.32335

>  <SCORE.INTRA.norm>
-0.032903

>  <SCORE.RESTR>
0.0021807

>  <SCORE.RESTR.CAVITY>
0.0021807

>  <SCORE.RESTR.norm>
9.91225e-05

>  <SCORE.SYSTEM>
0

>  <SCORE.SYSTEM.CONST>
0

>  <SCORE.SYSTEM.DIHEDRAL>
0

>  <SCORE.SYSTEM.SOLV>
0

>  <SCORE.SYSTEM.norm>
0

>  <SCORE.heavy>
22

>  <SCORE.norm>
-0.55057

>  <RMSD>
12.837

$$$$
2fcx_lig
 OpenBabel11021811433D
libRbt.so/2013.1/901 2013/11/27
 22 23  0  0  0  0  0  0  0  0999 V2000
   30.2003   -1.9641   13.2630 N   0  0  0  0  0  0  0  0  0  0  0  0
   30.8138   -0.6965    8.5629 N   0  0  0  0  0  0  0  0  0  0  0  0
   28.9474    3.3950    9.5118 N   0  0  0  0  0  0  0  0  0  0  0  0
   26.3808   -0.5663   10.5656 O   0  0  0  0  0  0  0  0  0  0  0  0
   27.6188   -1.2821   10.5417 C   0  0  2  0  0  0  0  0  0  0  0  0
   26.2815   -1.3549    5.9503 N   0  0  0  0  0  0  0  0  0  0  0  0
   27.3493   -2.0043   12.8142 O   0  0  0  0  0  0  0  0  0  0  0  0
   28.2393   -1.2993   11.9407 C   0  0  1  0  0  0  0  0  0  0  0  0
   28.0115   -0.8320    8.1807 O   0  0  0  0  0  0  0  0  0  0  0  0
   29.5996   -2.0003   11.9216 C   0  0  1  0  0  0  0  0  0  0  0  0
   27.2166    1.3680    8.3220 O   0  0  0  0  0  0  0  0  0  0  0  0
   30.5448   -1.3149   10.9291 C   0  0  0  0  0  0  0  0  0  0  0  0
   29.1888    2.4901    5.4009 O   0  0  0  0  0  0  0  0  0  0  0  0
   29.9228   -1.3525    9.5303 C   0  0  1  0  0  0  0  0  0  0  0  0
   27.4221    0.6215    4.2104 O   0  0  0  0  0  0  0  0  0  0  0  0
   28.5567   -0.6608    9.4996 C   0  0  2  0  0  0  0  0  0  0  0  0
   26.8928    0.0286    7.9055 C   0  0  1  0  0  0  0  0  0  0  0  0
   28.3249    1.9530    7.6090 C   0  0  2  0  0  0  0  0  0  0  0  0
   28.5748    3.3843    8.0893 C   0  0  0  0  0  0  0  0  0  0  0  0
   28.0466    1.9912    6.1039 C   0  0  2  0  0  0  0  0  0  0  0  0
   27.7436    0.5785    5.6020 C   0  0  1  0  0  0  0  0  0  0  0  0
   26.5708    0.0114    6.4062 C   0  0  1  0  0  0  0  0  0  0  0  0
  5  4  1  1  0  0  0
  5  8  1  0  0  0  0
  5 16  1  0  0  0  0
  8  7  1  1  0  0  0
  8 10  1  0  0  0  0
 10  1  1  1  0  0  0
 10 12  1  0  0  0  0
 11 18  1  0  0  0  0
 12 14  1  0  0  0  0
 14  2  1  6  0  0  0
 14 16  1  0  0  0  0
 16  9  1  6  0  0  0
 17  9  1  6  0  0  0
 17 11  1  0  0  0  0
 17 22  1  0  0  0  0
 18 19  1  1  0  0  0
 18 20  1  0  0  0  0
 19  3  1  0  0  0  0
 20 13  1  6  0  0  0
 20 21  1  0  0  0  0
 21 15  1  6  0  0  0
 21 22  1  0  0  0  0
 22  6  1  6  0  0  0
M  END
>  <CHROM.1>
73.78774186,46.90519012,62.58914962,28.27083039,0.03579921,8.74847567,-1.31998834
-0.83579840,-0.92039524

>  <Name>
2fcx_lig

>  <RI>
2.51704e+07

>  <Rbt.Current_Directory>
/home/itssahil/PROJECTS/Mol_Feturizer/New_Systems/rnas/2fcx

>  <Rbt.Executable>
rbdock ($Id: //depot/dev/client3/rdock/2013.1/src/exe/rbdock.cxx#4 $)

>  <Rbt.Library>
libRbt.so (2013.1, Build901 2013/11/27)

>  <Rbt.Parameter_File>
/export/apps/rDock/src/rDock_2013.1_src/data/scripts/dock_solv.prm

>  <Rbt.Receptor>
prm/blind_docking_80.prm

>  <SCORE>
-7.49159

>  <SCORE.INTER>
-6.14152

>  <SCORE.INTER.CONST>
1

>  <SCORE.INTER.POLAR>
-0.894427

>  <SCORE.INTER.ROT>
3

>  <SCORE.INTER.SOLV>
16.6177

>  <SCORE.INTER.VDW>
-12.2521

>  <SCORE.INTER.norm>
-0.27916

>  <SCORE.INTRA>
-1.35006

>  <SCORE.INTRA.DIHEDRAL>
-3.1435

>  <SCORE.INTRA.DIHEDRAL.0>
4.88619

>  <SCORE.INTRA.POLAR>
0

>  <SCORE.INTRA.POLAR.0>
0

>  <SCORE.INTRA.REPUL>
0

>  <SCORE.INTRA.REPUL.0>
0

>  <SCORE.INTRA.SOLV>
-0.30338

>  <SCORE.INTRA.SOLV.lig_0>
-73.8187

>  <SCORE.INTRA.VDW>
0.373376

>  <SCORE.INTRA.VDW.0>
-1.32335

>  <SCORE.INTRA.norm>
-0.0613666

>  <SCORE.RESTR>
0

>  <SCORE.RESTR.CAVITY>
0

>  <SCORE.RESTR.norm>
0

>  <SCORE.SYSTEM>
0

>  <SCORE.SYSTEM.CONST>
0

>  <SCORE.SYSTEM.DIHEDRAL>
0

>  <SCORE.SYSTEM.SOLV>
0

>  <SCORE.SYSTEM.norm>
0

>  <SCORE.heavy>
22

>  <SCORE.norm>
-0.340527

>  <RMSD>
12.850

$$$$
2fcx_lig
 OpenBabel11021811433D
libRbt.so/2013.1/901 2013/11/27
 22 23  0  0  0  0  0  0  0  0999 V2000
   27.7141    5.1831    0.4062 N   0  0  0  0  0  0  0  0  0  0  0  0
   25.8116    4.3625    4.8539 N   0  0  0  0  0  0  0  0  0  0  0  0
   28.7355    2.5587    9.4444 N   0  0  0  0  0  0  0  0  0  0  0  0
   29.0398    1.2470    2.9691 O   0  0  0  0  0  0  0  0  0  0  0  0
   27.9451    2.1111    2.6524 C   0  0  2  0  0  0  0  0  0  0  0  0
   26.6640   -1.1201    5.1841 N   0  0  0  0  0  0  0  0  0  0  0  0
   28.7751    2.4989    0.4345 O   0  0  0  0  0  0  0  0  0  0  0  0
   28.3909    3.1695    1.6406 C   0  0  1  0  0  0  0  0  0  0  0  0
   26.8184    1.7171    4.7752 O   0  0  0  0  0  0  0  0  0  0  0  0
   27.2522    4.1474    1.3420 C   0  0  1  0  0  0  0  0  0  0  0  0
   28.2247    1.9407    6.6364 O   0  0  0  0  0  0  0  0  0  0  0  0
   26.7648    4.8165    2.6316 C   0  0  0  0  0  0  0  0  0  0  0  0
   25.4451    1.5522    9.0456 O   0  0  0  0  0  0  0  0  0  0  0  0
   26.2811    3.7405    3.6078 C   0  0  1  0  0  0  0  0  0  0  0  0
   25.4676   -0.9876    7.7890 O   0  0  0  0  0  0  0  0  0  0  0  0
   27.3894    2.7363    3.9378 C   0  0  2  0  0  0  0  0  0  0  0  0
   27.7847    1.0436    5.6001 C   0  0  1  0  0  0  0  0  0  0  0  0
   27.1795    2.3510    7.5409 C   0  0  2  0  0  0  0  0  0  0  0  0
   27.7419    3.2707    8.6270 C   0  0  0  0  0  0  0  0  0  0  0  0
   26.5385    1.1380    8.2207 C   0  0  2  0  0  0  0  0  0  0  0  0
   26.0096    0.1739    7.1575 C   0  0  1  0  0  0  0  0  0  0  0  0
   27.1614   -0.2106    6.2251 C   0  0  1  0  0  0  0  0  0  0  0  0
  5  4  1  1  0  0  0
  5  8  1  0  0  0  0
  5 16  1  0  0  0  0
  8  7  1  6  0  0  0
  8 10  1  0  0  0  0
 10  1  1  6  0  0  0
 10 12  1  0  0  0  0
 11 18  1  0  0  0  0
 12 14  1  0  0  0  0
 14  2  1  1  0  0  0
 14 16  1  0  0  0  0
 16  9  1  1  0  0  0
 17  9  1  6  0  0  0
 17 11  1  0  0  0  0
 17 22  1  0  0  0  0
 18 19  1  1  0  0  0
 18 20  1  0  0  0  0
 19  3  1  0  0  0  0
 20 13  1  1  0  0  0
 20 21  1  0  0  0  0
 21 15  1  1  0  0  0
 21 22  1  0  0  0  0
 22  6  1  6  0  0  0
M  END
>  <CHROM.1>
83.95396671,71.54724941,-62.71197609,27.23707760,2.12840759,5.04987781,0.32551494
1.40728037,0.04708820

>  <Name>
2fcx_lig

>  <RI>
224

>  <Rbt.Current_Directory>
/home/itssahil/PROJECTS/Mol_Feturizer/New_Systems/rnas/2fcx

>  <Rbt.Executable>
rbdock ($Id: //depot/dev/client3/rdock/2013.1/src/exe/rbdock.cxx#4 $)

>  <Rbt.Library>
libRbt.so (2013.1, Build901 2013/11/27)

>  <Rbt.Parameter_File>
/export/apps/rDock/src/rDock_2013.1_src/data/scripts/dock_solv.prm

>  <Rbt.Receptor>
prm/blind_docking_60.prm

>  <SCORE>
-14.164

>  <SCORE.INTER>
-14.0411

>  <SCORE.INTER.CONST>
1

>  <SCORE.INTER.POLAR>
-1.75054

>  <SCORE.INTER.ROT>
3

>  <SCORE.INTER.SOLV>
14.6432

>  <SCORE.INTER.VDW>
-14.0067

>  <SCORE.INTER.norm>
-0.638232

>  <SCORE.INTRA>
-0.343074

>  <SCORE.INTRA.DIHEDRAL>
-1.73258

>  <SCORE.INTRA.DIHEDRAL.0>
4.88619

>  <SCORE.INTRA.POLAR>
0

>  <SCORE.INTRA.POLAR.0>
0

>  <SCORE.INTRA.REPUL>
0

>  <SCORE.INTRA.REPUL.0>
0

>  <SCORE.INTRA.SOLV>
1.53699

>  <SCORE.INTRA.SOLV.lig_0>
-73.8187

>  <SCORE.INTRA.VDW>
-0.245282

>  <SCORE.INTRA.VDW.0>
-1.32335

>  <SCORE.INTRA.norm>
-0.0155943

>  <SCORE.RESTR>
0.220185

>  <SCORE.RESTR.CAVITY>
0.220185

>  <SCORE.RESTR.norm>
0.0100084

>  <SCORE.SYSTEM>
0

>  <SCORE.SYSTEM.CONST>
0

>  <SCORE.SYSTEM.DIHEDRAL>
0

>  <SCORE.SYSTEM.SOLV>
0

>  <SCORE.SYSTEM.norm>
0

>  <SCORE.heavy>
22

>  <SCORE.norm>
-0.643817

>  <RMSD>
12.857

$$$$
2fcx_lig
 OpenBabel11021811433D
libRbt.so/2013.1/901 2013/11/27
 22 23  0  0  0  0  0  0  0  0999 V2000
   33.2400   -1.9531    3.8123 N   0  0  0  0  0  0  0  0  0  0  0  0
   29.7470   -1.1628    7.1663 N   0  0  0  0  0  0  0  0  0  0  0  0
   28.2085    0.7013   10.9088 N   0  0  0  0  0  0  0  0  0  0  0  0
   29.7746    1.3920    3.0248 O   0  0  0  0  0  0  0  0  0  0  0  0
   30.6088    0.7979    4.0230 C   0  0  2  0  0  0  0  0  0  0  0  0
   26.9398    3.0074    4.9767 N   0  0  0  0  0  0  0  0  0  0  0  0
   32.3913    0.4486    2.4549 O   0  0  0  0  0  0  0  0  0  0  0  0
   31.5379   -0.2348    3.3805 C   0  0  1  0  0  0  0  0  0  0  0  0
   29.0225    1.2215    5.8217 O   0  0  0  0  0  0  0  0  0  0  0  0
   32.3901   -0.9325    4.4431 C   0  0  1  0  0  0  0  0  0  0  0  0
   27.5428    0.1342    7.2777 O   0  0  0  0  0  0  0  0  0  0  0  0
   31.4984   -1.6012    5.4948 C   0  0  0  0  0  0  0  0  0  0  0  0
   27.6621    2.8627    9.7721 O   0  0  0  0  0  0  0  0  0  0  0  0
   30.6131   -0.5405    6.1551 C   0  0  1  0  0  0  0  0  0  0  0  0
   26.4678    4.1678    7.5584 O   0  0  0  0  0  0  0  0  0  0  0  0
   29.7393    0.1864    5.1284 C   0  0  2  0  0  0  0  0  0  0  0  0
   27.6417    0.9009    6.0634 C   0  0  1  0  0  0  0  0  0  0  0  0
   27.9758    0.8426    8.4565 C   0  0  2  0  0  0  0  0  0  0  0  0
   27.8027   -0.0319    9.7004 C   0  0  0  0  0  0  0  0  0  0  0  0
   27.1630    2.1253    8.6520 C   0  0  2  0  0  0  0  0  0  0  0  0
   27.2762    3.0000    7.4024 C   0  0  1  0  0  0  0  0  0  0  0  0
   26.8161    2.1872    6.1893 C   0  0  1  0  0  0  0  0  0  0  0  0
  5  4  1  6  0  0  0
  5  8  1  0  0  0  0
  5 16  1  0  0  0  0
  8  7  1  6  0  0  0
  8 10  1  0  0  0  0
 10  1  1  6  0  0  0
 10 12  1  0  0  0  0
 11 18  1  0  0  0  0
 12 14  1  0  0  0  0
 14  2  1  1  0  0  0
 14 16  1  0  0  0  0
 16  9  1  1  0  0  0
 17  9  1  1  0  0  0
 17 11  1  0  0  0  0
 17 22  1  0  0  0  0
 18 19  1  1  0  0  0
 18 20  1  0  0  0  0
 19  3  1  0  0  0  0
 20 13  1  1  0  0  0
 20 21  1  0  0  0  0
 21 15  1  1  0  0  0
 21 22  1  0  0  0  0
 22  6  1  6  0  0  0
M  END
>  <CHROM.1>
135.80377075,85.17674402,-178.42468191,29.17041585,0.82992874,6.26462821
-0.47539964,-0.76492267,2.00552718

>  <Name>
2fcx_lig

>  <RI>
2.63278e+07

>  <Rbt.Current_Directory>
/home/itssahil/PROJECTS/Mol_Feturizer/New_Systems/rnas/2fcx

>  <Rbt.Executable>
rbdock ($Id: //depot/dev/client3/rdock/2013.1/src/exe/rbdock.cxx#4 $)

>  <Rbt.Library>
libRbt.so (2013.1, Build901 2013/11/27)

>  <Rbt.Parameter_File>
/export/apps/rDock/src/rDock_2013.1_src/data/scripts/dock_solv.prm

>  <Rbt.Receptor>
prm/blind_docking_40.prm

>  <SCORE>
-8.77194

>  <SCORE.INTER>
-12.9529

>  <SCORE.INTER.CONST>
1

>  <SCORE.INTER.POLAR>
-2.00738

>  <SCORE.INTER.ROT>
3

>  <SCORE.INTER.SOLV>
10.3516

>  <SCORE.INTER.VDW>
-10.9946

>  <SCORE.INTER.norm>
-0.58877

>  <SCORE.INTRA>
4.181

>  <SCORE.INTRA.DIHEDRAL>
3.8654

>  <SCORE.INTRA.DIHEDRAL.0>
4.88619

>  <SCORE.INTRA.POLAR>
0

>  <SCORE.INTRA.POLAR.0>
0

>  <SCORE.INTRA.REPUL>
0

>  <SCORE.INTRA.REPUL.0>
0

>  <SCORE.INTRA.SOLV>
3.65747

>  <SCORE.INTRA.SOLV.lig_0>
-73.8187

>  <SCORE.INTRA.VDW>
0.419558

>  <SCORE.INTRA.VDW.0>
-1.32335

>  <SCORE.INTRA.norm>
0.190045

>  <SCORE.RESTR>
0

>  <SCORE.RESTR.CAVITY>
0

>  <SCORE.RESTR.norm>
0

>  <SCORE.SYSTEM>
0

>  <SCORE.SYSTEM.CONST>
0

>  <SCORE.SYSTEM.DIHEDRAL>
0

>  <SCORE.SYSTEM.SOLV>
0

>  <SCORE.SYSTEM.norm>
0

>  <SCORE.heavy>
22

>  <SCORE.norm>
-0.398724

>  <RMSD>
12.959

$$$$
2fcx_lig
 OpenBabel11021811433D
libRbt.so/2013.1/901 2013/11/27
 22 23  0  0  0  0  0  0  0  0999 V2000
   32.9255   -0.1724    3.1604 N   0  0  0  0  0  0  0  0  0  0  0  0
   32.0797   -2.6006    7.3393 N   0  0  0  0  0  0  0  0  0  0  0  0
   28.2858    3.6994    7.8596 N   0  0  0  0  0  0  0  0  0  0  0  0
   28.5122   -0.0422    5.2399 O   0  0  0  0  0  0  0  0  0  0  0  0
   29.9181   -0.0676    5.5012 C   0  0  2  0  0  0  0  0  0  0  0  0
   30.1461   -1.3680   10.4765 N   0  0  0  0  0  0  0  0  0  0  0  0
   30.4022    1.1843    3.5121 O   0  0  0  0  0  0  0  0  0  0  0  0
   30.6949   -0.0473    4.1827 C   0  0  1  0  0  0  0  0  0  0  0  0
   29.6545   -1.1735    7.6550 O   0  0  0  0  0  0  0  0  0  0  0  0
   32.2005   -0.1450    4.4392 C   0  0  1  0  0  0  0  0  0  0  0  0
   29.5652    1.1638    7.7996 O   0  0  0  0  0  0  0  0  0  0  0  0
   32.5306   -1.4146    5.2312 C   0  0  0  0  0  0  0  0  0  0  0  0
   26.1761    1.1516    9.2812 O   0  0  0  0  0  0  0  0  0  0  0  0
   31.7784   -1.3883    6.5648 C   0  0  1  0  0  0  0  0  0  0  0  0
   27.6838   -0.1457   11.2996 O   0  0  0  0  0  0  0  0  0  0  0  0
   30.2639   -1.2912    6.3585 C   0  0  2  0  0  0  0  0  0  0  0  0
   30.1047   -0.0285    8.3994 C   0  0  1  0  0  0  0  0  0  0  0  0
   28.1256    1.2375    7.8312 C   0  0  2  0  0  0  0  0  0  0  0  0
   27.6428    2.5489    7.2075 C   0  0  0  0  0  0  0  0  0  0  0  0
   27.6069    1.1683    9.2701 C   0  0  2  0  0  0  0  0  0  0  0  0
   28.1149   -0.1107    9.9378 C   0  0  1  0  0  0  0  0  0  0  0  0
   29.6437   -0.1337    9.8582 C   0  0  1  0  0  0  0  0  0  0  0  0
  5  4  1  6  0  0  0
  5  8  1  0  0  0  0
  5 16  1  0  0  0  0
  8  7  1  1  0  0  0
  8 10  1  0  0  0  0
 10  1  1  6  0  0  0
 10 12  1  0  0  0  0
 11 18  1  0  0  0  0
 12 14  1  0  0  0  0
 14  2  1  6  0  0  0
 14 16  1  0  0  0  0
 16  9  1  1  0  0  0
 17  9  1  6  0  0  0
 17 11  1  0  0  0  0
 17 22  1  0  0  0  0
 18 19  1  1  0  0  0
 18 20  1  0  0  0  0
 19  3  1  0  0  0  0
 20 13  1  6  0  0  0
 20 21  1  0  0  0  0
 21 15  1  1  0  0  0
 21 22  1  0  0  0  0
 22  6  1  6  0  0  0
M  END
>  <CHROM.1>
-61.38501726,71.18492956,-54.43983039,29.68519168,0.10777149,7.20919291,0.65488833
0.73727988,-1.09029140

>  <Name>
2fcx_lig

>  <RI>
2.63278e+07

>  <Rbt.Current_Directory>
/home/itssahil/PROJECTS/Mol_Feturizer/New_Systems/rnas/2fcx

>  <Rbt.Executable>
rbdock ($Id: //depot/dev/client3/rdock/2013.1/src/exe/rbdock.cxx#4 $)

>  <Rbt.Library>
libRbt.so (2013.1, Build901 2013/11/27)

>  <Rbt.Parameter_File>
/export/apps/rDock/src/rDock_2013.1_src/data/scripts/dock_solv.prm

>  <Rbt.Receptor>
prm/blind_docking_40.prm

>  <SCORE>
-12.7341

>  <SCORE.INTER>
-13.2937

>  <SCORE.INTER.CONST>
1

>  <SCORE.INTER.POLAR>
-1.72402

>  <SCORE.INTER.ROT>
3

>  <SCORE.INTER.SOLV>
6.00416

>  <SCORE.INTER.VDW>
-10.7171

>  <SCORE.INTER.norm>
-0.604259

>  <SCORE.INTRA>
0.559559

>  <SCORE.INTRA.DIHEDRAL>
-4.16047

>  <SCORE.INTRA.DIHEDRAL.0>
4.88619

>  <SCORE.INTRA.POLAR>
0

>  <SCORE.INTRA.POLAR.0>
0

>  <SCORE.INTRA.REPUL>
0

>  <SCORE.INTRA.REPUL.0>
0

>  <SCORE.INTRA.SOLV>
1.96619

>  <SCORE.INTRA.SOLV.lig_0>
-73.8187

>  <SCORE.INTRA.VDW>
1.6567

>  <SCORE.INTRA.VDW.0>
-1.32335

>  <SCORE.INTRA.norm>
0.0254345

>  <SCORE.RESTR>
0

>  <SCORE.RESTR.CAVITY>
0

>  <SCORE.RESTR.norm>
0

>  <SCORE.SYSTEM>
0

>  <SCORE.SYSTEM.CONST>
0

>  <SCORE.SYSTEM.DIHEDRAL>
0

>  <SCORE.SYSTEM.SOLV>
0

>  <SCORE.SYSTEM.norm>
0

>  <SCORE.heavy>
22

>  <SCORE.norm>
-0.578824

>  <RMSD>
12.965

$$$$
2fcx_lig
 OpenBabel11021811433D
libRbt.so/2013.1/901 2013/11/27
 22 23  0  0  0  0  0  0  0  0999 V2000
   27.3276   -3.0538   10.6350 N   0  0  0  0  0  0  0  0  0  0  0  0
   26.0002   -1.0352    6.3644 N   0  0  0  0  0  0  0  0  0  0  0  0
   30.1254    0.5667    5.3804 N   0  0  0  0  0  0  0  0  0  0  0  0
   27.9648    1.7224    9.8595 O   0  0  0  0  0  0  0  0  0  0  0  0
   27.0982    0.6118    9.6123 C   0  0  2  0  0  0  0  0  0  0  0  0
   25.0636    4.1415    7.3461 N   0  0  0  0  0  0  0  0  0  0  0  0
   27.6415   -0.3977   11.7203 O   0  0  0  0  0  0  0  0  0  0  0  0
   27.6402   -0.6388   10.3083 C   0  0  1  0  0  0  0  0  0  0  0  0
   26.2557    1.5360    7.5225 O   0  0  0  0  0  0  0  0  0  0  0  0
   26.7641   -1.8547    9.9976 C   0  0  1  0  0  0  0  0  0  0  0  0
   28.2896    2.3775    6.7181 O   0  0  0  0  0  0  0  0  0  0  0  0
   26.6774   -2.0834    8.4848 C   0  0  0  0  0  0  0  0  0  0  0  0
   27.0772    2.5524    3.2280 O   0  0  0  0  0  0  0  0  0  0  0  0
   26.0891   -0.8369    7.8180 C   0  0  1  0  0  0  0  0  0  0  0  0
   25.3920    4.4353    4.5106 O   0  0  0  0  0  0  0  0  0  0  0  0
   26.9342    0.4087    8.1011 C   0  0  2  0  0  0  0  0  0  0  0  0
   27.0783    2.7111    7.4207 C   0  0  1  0  0  0  0  0  0  0  0  0
   28.0802    1.9467    5.3582 C   0  0  2  0  0  0  0  0  0  0  0  0
   29.4186    1.6487    4.6789 C   0  0  0  0  0  0  0  0  0  0  0  0
   27.3585    3.0272    4.5483 C   0  0  2  0  0  0  0  0  0  0  0  0
   26.0366    3.3829    5.2307 C   0  0  1  0  0  0  0  0  0  0  0  0
   26.3269    3.8172    6.6699 C   0  0  1  0  0  0  0  0  0  0  0  0
  5  4  1  6  0  0  0
  5  8  1  0  0  0  0
  5 16  1  0  0  0  0
  8  7  1  1  0  0  0
  8 10  1  0  0  0  0
 10  1  1  1  0  0  0
 10 12  1  0  0  0  0
 11 18  1  0  0  0  0
 12 14  1  0  0  0  0
 14  2  1  6  0  0  0
 14 16  1  0  0  0  0
 16  9  1  1  0  0  0
 17  9  1  6  0  0  0
 17 11  1  0  0  0  0
 17 22  1  0  0  0  0
 18 19  1  6  0  0  0
 18 20  1  0  0  0  0
 19  3  1  0  0  0  0
 20 13  1  6  0  0  0
 20 21  1  0  0  0  0
 21 15  1  6  0  0  0
 21 22  1  0  0  0  0
 22  6  1  1  0  0  0
M  END
>  <CHROM.1>
74.03447482,53.70984902,61.15729999,27.12518369,1.16640732,7.33303687,-1.49113405
1.00638222,-0.93418271

>  <Name>
2fcx_lig

>  <RI>
224

>  <Rbt.Current_Directory>
/home/itssahil/PROJECTS/Mol_Feturizer/New_Systems/rnas/2fcx

>  <Rbt.Executable>
rbdock ($Id: //depot/dev/client3/rdock/2013.1/src/exe/rbdock.cxx#4 $)

>  <Rbt.Library>
libRbt.so (2013.1, Build901 2013/11/27)

>  <Rbt.Parameter_File>
/export/apps/rDock/src/rDock_2013.1_src/data/scripts/dock_solv.prm

>  <Rbt.Receptor>
prm/blind_docking_60.prm

>  <SCORE>
-14.0709

>  <SCORE.INTER>
-12.1439

>  <SCORE.INTER.CONST>
1

>  <SCORE.INTER.POLAR>
-1.49999

>  <SCORE.INTER.ROT>
3

>  <SCORE.INTER.SOLV>
8.80667

>  <SCORE.INTER.VDW>
-11.6316

>  <SCORE.INTER.norm>
-0.551998

>  <SCORE.INTRA>
-1.92694

>  <SCORE.INTRA.DIHEDRAL>
-3.75091

>  <SCORE.INTRA.DIHEDRAL.0>
4.88619

>  <SCORE.INTRA.POLAR>
0

>  <SCORE.INTRA.POLAR.0>
0

>  <SCORE.INTRA.REPUL>
0

>  <SCORE.INTRA.REPUL.0>
0

>  <SCORE.INTRA.SOLV>
-0.495292

>  <SCORE.INTRA.SOLV.lig_0>
-73.8187

>  <SCORE.INTRA.VDW>
0.196163

>  <SCORE.INTRA.VDW.0>
-1.32335

>  <SCORE.INTRA.norm>
-0.0875881

>  <SCORE.RESTR>
0

>  <SCORE.RESTR.CAVITY>
0

>  <SCORE.RESTR.norm>
0

>  <SCORE.SYSTEM>
0

>  <SCORE.SYSTEM.CONST>
0

>  <SCORE.SYSTEM.DIHEDRAL>
0

>  <SCORE.SYSTEM.SOLV>
0

>  <SCORE.SYSTEM.norm>
0

>  <SCORE.heavy>
22

>  <SCORE.norm>
-0.639586

>  <RMSD>
13.027

$$$$
2fcx_lig
 OpenBabel11021811433D
libRbt.so/2013.1/901 2013/11/27
 22 23  0  0  0  0  0  0  0  0999 V2000
   33.3544   -0.6345    3.4056 N   0  0  0  0  0  0  0  0  0  0  0  0
   31.9133   -2.7962    7.5679 N   0  0  0  0  0  0  0  0  0  0  0  0
   28.0555    3.7275    7.6912 N   0  0  0  0  0  0  0  0  0  0  0  0
   28.8258    0.0386    5.0959 O   0  0  0  0  0  0  0  0  0  0  0  0
   30.1947   -0.1239    5.4769 C   0  0  2  0  0  0  0  0  0  0  0  0
   30.1666   -1.1594   10.4537 N   0  0  0  0  0  0  0  0  0  0  0  0
   30.9718    0.9920    3.4998 O   0  0  0  0  0  0  0  0  0  0  0  0
   31.0743   -0.2364    4.2295 C   0  0  1  0  0  0  0  0  0  0  0  0
   29.6384   -1.1114    7.6325 O   0  0  0  0  0  0  0  0  0  0  0  0
   32.5346   -0.4815    4.6164 C   0  0  1  0  0  0  0  0  0  0  0  0
   29.4825    1.2265    7.6694 O   0  0  0  0  0  0  0  0  0  0  0  0
   32.6601   -1.7470    5.4715 C   0  0  0  0  0  0  0  0  0  0  0  0
   26.1117    1.1865    9.1919 O   0  0  0  0  0  0  0  0  0  0  0  0
   31.8088   -1.5901    6.7345 C   0  0  1  0  0  0  0  0  0  0  0  0
   27.6789    0.0289   11.2495 O   0  0  0  0  0  0  0  0  0  0  0  0
   30.3355   -1.3428    6.3969 C   0  0  2  0  0  0  0  0  0  0  0  0
   30.0631    0.0796    8.3173 C   0  0  1  0  0  0  0  0  0  0  0  0
   28.0418    1.2603    7.7154 C   0  0  2  0  0  0  0  0  0  0  0  0
   27.5140    2.5267    7.0375 C   0  0  0  0  0  0  0  0  0  0  0  0
   27.5412    1.2437    9.1623 C   0  0  2  0  0  0  0  0  0  0  0  0
   28.0937    0.0125    9.8823 C   0  0  1  0  0  0  0  0  0  0  0  0
   29.6215    0.0296    9.7850 C   0  0  1  0  0  0  0  0  0  0  0  0
  5  4  1  6  0  0  0
  5  8  1  0  0  0  0
  5 16  1  0  0  0  0
  8  7  1  1  0  0  0
  8 10  1  0  0  0  0
 10  1  1  6  0  0  0
 10 12  1  0  0  0  0
 11 18  1  0  0  0  0
 12 14  1  0  0  0  0
 14  2  1  1  0  0  0
 14 16  1  0  0  0  0
 16  9  1  1  0  0  0
 17  9  1  6  0  0  0
 17 11  1  0  0  0  0
 17 22  1  0  0  0  0
 18 19  1  1  0  0  0
 18 20  1  0  0  0  0
 19  3  1  0  0  0  0
 20 13  1  6  0  0  0
 20 21  1  0  0  0  0
 21 15  1  1  0  0  0
 21 22  1  0  0  0  0
 22  6  1  6  0  0  0
M  END
>  <CHROM.1>
-55.91407932,77.10365542,-58.53261598,29.76045794,0.06984896,7.20089924,0.54313605
0.72887443,-1.08239315

>  <Name>
2fcx_lig

>  <RI>
2.51704e+07

>  <Rbt.Current_Directory>
/home/itssahil/PROJECTS/Mol_Feturizer/New_Systems/rnas/2fcx

>  <Rbt.Executable>
rbdock ($Id: //depot/dev/client3/rdock/2013.1/src/exe/rbdock.cxx#4 $)

>  <Rbt.Library>
libRbt.so (2013.1, Build901 2013/11/27)

>  <Rbt.Parameter_File>
/export/apps/rDock/src/rDock_2013.1_src/data/scripts/dock_solv.prm

>  <Rbt.Receptor>
prm/blind_docking_80.prm

>  <SCORE>
-12.5522

>  <SCORE.INTER>
-13.3024

>  <SCORE.INTER.CONST>
1

>  <SCORE.INTER.POLAR>
-1.77357

>  <SCORE.INTER.ROT>
3

>  <SCORE.INTER.SOLV>
5.79955

>  <SCORE.INTER.VDW>
-10.4895

>  <SCORE.INTER.norm>
-0.604653

>  <SCORE.INTRA>
0.750164

>  <SCORE.INTRA.DIHEDRAL>
-3.43928

>  <SCORE.INTRA.DIHEDRAL.0>
4.88619

>  <SCORE.INTRA.POLAR>
0

>  <SCORE.INTRA.POLAR.0>
0

>  <SCORE.INTRA.REPUL>
0

>  <SCORE.INTRA.REPUL.0>
0

>  <SCORE.INTRA.SOLV>
2.20769

>  <SCORE.INTRA.SOLV.lig_0>
-73.8187

>  <SCORE.INTRA.VDW>
1.36596

>  <SCORE.INTRA.VDW.0>
-1.32335

>  <SCORE.INTRA.norm>
0.0340983

>  <SCORE.RESTR>
0

>  <SCORE.RESTR.CAVITY>
0

>  <SCORE.RESTR.norm>
0

>  <SCORE.SYSTEM>
0

>  <SCORE.SYSTEM.CONST>
0

>  <SCORE.SYSTEM.DIHEDRAL>
0

>  <SCORE.SYSTEM.SOLV>
0

>  <SCORE.SYSTEM.norm>
0

>  <SCORE.heavy>
22

>  <SCORE.norm>
-0.570555

>  <RMSD>
13.035

$$$$
2fcx_lig
 OpenBabel11021811433D
libRbt.so/2013.1/901 2013/11/27
 22 23  0  0  0  0  0  0  0  0999 V2000
   33.1000   -1.4754    3.5047 N   0  0  0  0  0  0  0  0  0  0  0  0
   31.0506   -2.0237    7.9289 N   0  0  0  0  0  0  0  0  0  0  0  0
   27.6117   -3.7594    8.9631 N   0  0  0  0  0  0  0  0  0  0  0  0
   28.8832    0.7422    4.5627 O   0  0  0  0  0  0  0  0  0  0  0  0
   30.1509    0.3456    5.0928 C   0  0  2  0  0  0  0  0  0  0  0  0
   27.9061    2.6291    7.6171 N   0  0  0  0  0  0  0  0  0  0  0  0
   31.2374    0.6655    2.9773 O   0  0  0  0  0  0  0  0  0  0  0  0
   30.9932   -0.3110    3.9965 C   0  0  1  0  0  0  0  0  0  0  0  0
   29.3080    0.1365    7.3681 O   0  0  0  0  0  0  0  0  0  0  0  0
   32.3268   -0.8060    4.5610 C   0  0  1  0  0  0  0  0  0  0  0  0
   27.3253   -1.0530    7.7496 O   0  0  0  0  0  0  0  0  0  0  0  0
   32.0924   -1.7897    5.7123 C   0  0  0  0  0  0  0  0  0  0  0  0
   27.3743   -0.3791   11.3862 O   0  0  0  0  0  0  0  0  0  0  0  0
   31.2889   -1.0948    6.8152 C   0  0  1  0  0  0  0  0  0  0  0  0
   27.0553    2.2304   10.3284 O   0  0  0  0  0  0  0  0  0  0  0  0
   29.9424   -0.5814    6.2965 C   0  0  2  0  0  0  0  0  0  0  0  0
   27.8750    0.1835    7.2586 C   0  0  1  0  0  0  0  0  0  0  0  0
   27.5875   -1.2989    9.1459 C   0  0  2  0  0  0  0  0  0  0  0  0
   26.9384   -2.6118    9.5894 C   0  0  0  0  0  0  0  0  0  0  0  0
   27.0291   -0.1678   10.0137 C   0  0  2  0  0  0  0  0  0  0  0  0
   27.6230    1.1671    9.5611 C   0  0  1  0  0  0  0  0  0  0  0  0
   27.3225    1.3601    8.0724 C   0  0  1  0  0  0  0  0  0  0  0  0
  5  4  1  6  0  0  0
  5  8  1  0  0  0  0
  5 16  1  0  0  0  0
  8  7  1  6  0  0  0
  8 10  1  0  0  0  0
 10  1  1  6  0  0  0
 10 12  1  0  0  0  0
 11 18  1  0  0  0  0
 12 14  1  0  0  0  0
 14  2  1  1  0  0  0
 14 16  1  0  0  0  0
 16  9  1  1  0  0  0
 17  9  1  1  0  0  0
 17 11  1  0  0  0  0
 17 22  1  0  0  0  0
 18 19  1  1  0  0  0
 18 20  1  0  0  0  0
 19  3  1  0  0  0  0
 20 13  1  1  0  0  0
 20 21  1  0  0  0  0
 21 15  1  1  0  0  0
 21 22  1  0  0  0  0
 22  6  1  6  0  0  0
M  END
>  <CHROM.1>
84.59288457,80.92819281,68.65568202,29.15671896,-0.33767642,7.21593816,-0.34651545
-0.84206721,2.61256680

>  <Name>
2fcx_lig

>  <RI>
224

>  <Rbt.Current_Directory>
/home/itssahil/PROJECTS/Mol_Feturizer/New_Systems/rnas/2fcx

>  <Rbt.Executable>
rbdock ($Id: //depot/dev/client3/rdock/2013.1/src/exe/rbdock.cxx#4 $)

>  <Rbt.Library>
libRbt.so (2013.1, Build901 2013/11/27)

>  <Rbt.Parameter_File>
/export/apps/rDock/src/rDock_2013.1_src/data/scripts/dock_solv.prm

>  <Rbt.Receptor>
prm/blind_docking_100.prm

>  <SCORE>
-9.23294

>  <SCORE.INTER>
-9.09914

>  <SCORE.INTER.CONST>
1

>  <SCORE.INTER.POLAR>
-0.81336

>  <SCORE.INTER.ROT>
3

>  <SCORE.INTER.SOLV>
8.14827

>  <SCORE.INTER.VDW>
-11.671

>  <SCORE.INTER.norm>
-0.413597

>  <SCORE.INTRA>
-0.133796

>  <SCORE.INTRA.DIHEDRAL>
-0.0693853

>  <SCORE.INTRA.DIHEDRAL.0>
4.88619

>  <SCORE.INTRA.POLAR>
0

>  <SCORE.INTRA.POLAR.0>
0

>  <SCORE.INTRA.REPUL>
0

>  <SCORE.INTRA.REPUL.0>
0

>  <SCORE.INTRA.SOLV>
0.686438

>  <SCORE.INTRA.SOLV.lig_0>
-73.8187

>  <SCORE.INTRA.VDW>
-0.442322

>  <SCORE.INTRA.VDW.0>
-1.32335

>  <SCORE.INTRA.norm>
-0.00608162

>  <SCORE.RESTR>
0

>  <SCORE.RESTR.CAVITY>
0

>  <SCORE.RESTR.norm>
0

>  <SCORE.SYSTEM>
0

>  <SCORE.SYSTEM.CONST>
0

>  <SCORE.SYSTEM.DIHEDRAL>
0

>  <SCORE.SYSTEM.SOLV>
0

>  <SCORE.SYSTEM.norm>
0

>  <SCORE.heavy>
22

>  <SCORE.norm>
-0.419679

>  <RMSD>
13.037

$$$$
2fcx_lig
 OpenBabel11021811433D
libRbt.so/2013.1/901 2013/11/27
 22 23  0  0  0  0  0  0  0  0999 V2000
   33.2570   -1.6169    3.3882 N   0  0  0  0  0  0  0  0  0  0  0  0
   29.7189    1.5808    4.5421 N   0  0  0  0  0  0  0  0  0  0  0  0
   31.3597    3.6501    8.1217 N   0  0  0  0  0  0  0  0  0  0  0  0
   31.1116   -1.7852    7.7686 O   0  0  0  0  0  0  0  0  0  0  0  0
   30.8917   -1.5375    6.3773 C   0  0  2  0  0  0  0  0  0  0  0  0
   26.8534   -1.0702    8.3136 N   0  0  0  0  0  0  0  0  0  0  0  0
   32.5558   -3.1430    5.7357 O   0  0  0  0  0  0  0  0  0  0  0  0
   32.1872   -1.7659    5.5950 C   0  0  1  0  0  0  0  0  0  0  0  0
   29.0389   -0.0101    6.7836 O   0  0  0  0  0  0  0  0  0  0  0  0
   31.9905   -1.4377    4.1131 C   0  0  1  0  0  0  0  0  0  0  0  0
   29.8102    1.1787    8.6500 O   0  0  0  0  0  0  0  0  0  0  0  0
   31.5130    0.0082    3.9406 C   0  0  0  0  0  0  0  0  0  0  0  0
   27.1883    3.7698    8.3449 O   0  0  0  0  0  0  0  0  0  0  0  0
   30.1929    0.1978    4.6929 C   0  0  1  0  0  0  0  0  0  0  0  0
   25.6443    1.4624    8.9124 O   0  0  0  0  0  0  0  0  0  0  0  0
   30.3406   -0.1195    6.1840 C   0  0  2  0  0  0  0  0  0  0  0  0
   29.0693    0.0214    8.2209 C   0  0  1  0  0  0  0  0  0  0  0  0
   29.2175    2.4336    8.2592 C   0  0  2  0  0  0  0  0  0  0  0  0
   30.0487    3.6054    8.7863 C   0  0  0  0  0  0  0  0  0  0  0  0
   27.7964    2.5625    8.8142 C   0  0  2  0  0  0  0  0  0  0  0  0
   26.9525    1.3765    8.3441 C   0  0  1  0  0  0  0  0  0  0  0  0
   27.6415    0.0797    8.7773 C   0  0  1  0  0  0  0  0  0  0  0  0
  5  4  1  1  0  0  0
  5  8  1  0  0  0  0
  5 16  1  0  0  0  0
  8  7  1  6  0  0  0
  8 10  1  0  0  0  0
 10  1  1  6  0  0  0
 10 12  1  0  0  0  0
 11 18  1  0  0  0  0
 12 14  1  0  0  0  0
 14  2  1  1  0  0  0
 14 16  1  0  0  0  0
 16  9  1  1  0  0  0
 17  9  1  6  0  0  0
 17 11  1  0  0  0  0
 17 22  1  0  0  0  0
 18 19  1  1  0  0  0
 18 20  1  0  0  0  0
 19  3  1  0  0  0  0
 20 13  1  6  0  0  0
 20 21  1  0  0  0  0
 21 15  1  1  0  0  0
 21 22  1  0  0  0  0
 22  6  1  6  0  0  0
M  END
>  <CHROM.1>
73.09126996,61.68626926,67.14340981,29.72835850,0.43013489,6.96860092,-0.64553785
0.64350201,0.12801236

>  <Name>
2fcx_lig

>  <RI>
2.63278e+07

>  <Rbt.Current_Directory>
/home/itssahil/PROJECTS/Mol_Feturizer/New_Systems/rnas/2fcx

>  <Rbt.Executable>
rbdock ($Id: //depot/dev/client3/rdock/2013.1/src/exe/rbdock.cxx#4 $)

>  <Rbt.Library>
libRbt.so (2013.1, Build901 2013/11/27)

>  <Rbt.Parameter_File>
/export/apps/rDock/src/rDock_2013.1_src/data/scripts/dock_solv.prm

>  <Rbt.Receptor>
prm/blind_docking_40.prm

>  <SCORE>
-12.1981

>  <SCORE.INTER>
-10.0679

>  <SCORE.INTER.CONST>
1

>  <SCORE.INTER.POLAR>
-0.938083

>  <SCORE.INTER.ROT>
3

>  <SCORE.INTER.SOLV>
12.9096

>  <SCORE.INTER.VDW>
-13.4882

>  <SCORE.INTER.norm>
-0.457633

>  <SCORE.INTRA>
-2.13018

>  <SCORE.INTRA.DIHEDRAL>
-3.87214

>  <SCORE.INTRA.DIHEDRAL.0>
4.88619

>  <SCORE.INTRA.POLAR>
0

>  <SCORE.INTRA.POLAR.0>
0

>  <SCORE.INTRA.REPUL>
0

>  <SCORE.INTRA.REPUL.0>
0

>  <SCORE.INTRA.SOLV>
-0.703822

>  <SCORE.INTRA.SOLV.lig_0>
-73.8187

>  <SCORE.INTRA.VDW>
0.1578

>  <SCORE.INTRA.VDW.0>
-1.32335

>  <SCORE.INTRA.norm>
-0.0968264

>  <SCORE.RESTR>
0

>  <SCORE.RESTR.CAVITY>
0

>  <SCORE.RESTR.norm>
0

>  <SCORE.SYSTEM>
0

>  <SCORE.SYSTEM.CONST>
0

>  <SCORE.SYSTEM.DIHEDRAL>
0

>  <SCORE.SYSTEM.SOLV>
0

>  <SCORE.SYSTEM.norm>
0

>  <SCORE.heavy>
22

>  <SCORE.norm>
-0.554459

>  <RMSD>
13.041

$$$$
2fcx_lig
 OpenBabel11021811433D
libRbt.so/2013.1/901 2013/11/27
 22 23  0  0  0  0  0  0  0  0999 V2000
   23.4799    3.1190    6.7219 N   0  0  0  0  0  0  0  0  0  0  0  0
   26.4206   -0.7956    7.0424 N   0  0  0  0  0  0  0  0  0  0  0  0
   29.2553    1.3819    9.9767 N   0  0  0  0  0  0  0  0  0  0  0  0
   28.2239    3.5016    5.6418 O   0  0  0  0  0  0  0  0  0  0  0  0
   27.0809    2.6456    5.5627 C   0  0  2  0  0  0  0  0  0  0  0  0
   30.5509   -0.0081    3.7852 N   0  0  0  0  0  0  0  0  0  0  0  0
   25.5884    4.5094    5.3248 O   0  0  0  0  0  0  0  0  0  0  0  0
   25.8537    3.3586    6.1354 C   0  0  1  0  0  0  0  0  0  0  0  0
   28.4126    0.6068    5.5991 O   0  0  0  0  0  0  0  0  0  0  0  0
   24.6349    2.4330    6.1244 C   0  0  1  0  0  0  0  0  0  0  0  0
   29.9473    1.3529    7.2052 O   0  0  0  0  0  0  0  0  0  0  0  0
   24.9237    1.1529    6.9158 C   0  0  0  0  0  0  0  0  0  0  0  0
   30.9417   -2.0810    8.1543 O   0  0  0  0  0  0  0  0  0  0  0  0
   26.1252    0.4349    6.2949 C   0  0  1  0  0  0  0  0  0  0  0  0
   31.8234   -1.9566    5.4641 O   0  0  0  0  0  0  0  0  0  0  0  0
   27.3722    1.3240    6.2842 C   0  0  2  0  0  0  0  0  0  0  0  0
   29.7221    1.1675    5.7955 C   0  0  1  0  0  0  0  0  0  0  0  0
   29.9448    0.1284    7.9664 C   0  0  2  0  0  0  0  0  0  0  0  0
   30.2266    0.4154    9.4429 C   0  0  0  0  0  0  0  0  0  0  0  0
   31.0150   -0.8374    7.4503 C   0  0  2  0  0  0  0  0  0  0  0  0
   30.7891   -1.1055    5.9615 C   0  0  1  0  0  0  0  0  0  0  0  0
   30.7889    0.2312    5.2150 C   0  0  1  0  0  0  0  0  0  0  0  0
  5  4  1  1  0  0  0
  5  8  1  0  0  0  0
  5 16  1  0  0  0  0
  8  7  1  6  0  0  0
  8 10  1  0  0  0  0
 10  1  1  1  0  0  0
 10 12  1  0  0  0  0
 11 18  1  0  0  0  0
 12 14  1  0  0  0  0
 14  2  1  1  0  0  0
 14 16  1  0  0  0  0
 16  9  1  6  0  0  0
 17  9  1  1  0  0  0
 17 11  1  0  0  0  0
 17 22  1  0  0  0  0
 18 19  1  1  0  0  0
 18 20  1  0  0  0  0
 19  3  1  0  0  0  0
 20 13  1  1  0  0  0
 20 21  1  0  0  0  0
 21 15  1  6  0  0  0
 21 22  1  0  0  0  0
 22  6  1  6  0  0  0
M  END
>  <CHROM.1>
74.10143733,50.75452420,56.14433579,28.35539390,0.95413924,6.54496777,2.87971206
0.52947875,-1.26083431

>  <Name>
2fcx_lig

>  <RI>
2.63278e+07

>  <Rbt.Current_Directory>
/home/itssahil/PROJECTS/Mol_Feturizer/New_Systems/rnas/2fcx

>  <Rbt.Executable>
rbdock ($Id: //depot/dev/client3/rdock/2013.1/src/exe/rbdock.cxx#4 $)

>  <Rbt.Library>
libRbt.so (2013.1, Build901 2013/11/27)

>  <Rbt.Parameter_File>
/export/apps/rDock/src/rDock_2013.1_src/data/scripts/dock_solv.prm

>  <Rbt.Receptor>
prm/blind_docking_40.prm

>  <SCORE>
-10.0876

>  <SCORE.INTER>
-8.44419

>  <SCORE.INTER.CONST>
1

>  <SCORE.INTER.POLAR>
-0.894031

>  <SCORE.INTER.ROT>
3

>  <SCORE.INTER.SOLV>
11.8953

>  <SCORE.INTER.VDW>
-12.2144

>  <SCORE.INTER.norm>
-0.383827

>  <SCORE.INTRA>
-1.64346

>  <SCORE.INTRA.DIHEDRAL>
-3.471

>  <SCORE.INTRA.DIHEDRAL.0>
4.88619

>  <SCORE.INTRA.POLAR>
0

>  <SCORE.INTRA.POLAR.0>
0

>  <SCORE.INTRA.REPUL>
0

>  <SCORE.INTRA.REPUL.0>
0

>  <SCORE.INTRA.SOLV>
-0.368615

>  <SCORE.INTRA.SOLV.lig_0>
-73.8187

>  <SCORE.INTRA.VDW>
0.276353

>  <SCORE.INTRA.VDW.0>
-1.32335

>  <SCORE.INTRA.norm>
-0.0747025

>  <SCORE.RESTR>
0

>  <SCORE.RESTR.CAVITY>
0

>  <SCORE.RESTR.norm>
0

>  <SCORE.SYSTEM>
0

>  <SCORE.SYSTEM.CONST>
0

>  <SCORE.SYSTEM.DIHEDRAL>
0

>  <SCORE.SYSTEM.SOLV>
0

>  <SCORE.SYSTEM.norm>
0

>  <SCORE.heavy>
22

>  <SCORE.norm>
-0.458529

>  <RMSD>
13.052

$$$$
2fcx_lig
 OpenBabel11021811433D
libRbt.so/2013.1/901 2013/11/27
 22 23  0  0  0  0  0  0  0  0999 V2000
   31.5746   -1.4282   12.7015 N   0  0  0  0  0  0  0  0  0  0  0  0
   30.6920   -0.4409    7.9770 N   0  0  0  0  0  0  0  0  0  0  0  0
   28.6216    3.4429    7.6199 N   0  0  0  0  0  0  0  0  0  0  0  0
   27.0037   -0.7355   11.1376 O   0  0  0  0  0  0  0  0  0  0  0  0
   28.2778   -1.2858   10.7921 C   0  0  2  0  0  0  0  0  0  0  0  0
   25.5168   -2.2606    7.5781 N   0  0  0  0  0  0  0  0  0  0  0  0
   28.7462   -1.8678   13.0724 O   0  0  0  0  0  0  0  0  0  0  0  0
   29.2525   -1.1202   11.9604 C   0  0  1  0  0  0  0  0  0  0  0  0
   27.9417   -0.9636    8.4016 O   0  0  0  0  0  0  0  0  0  0  0  0
   30.6421   -1.6398   11.5846 C   0  0  1  0  0  0  0  0  0  0  0  0
   26.9481    1.1405    8.1233 O   0  0  0  0  0  0  0  0  0  0  0  0
   31.1714   -0.9133   10.3435 C   0  0  0  0  0  0  0  0  0  0  0  0
   27.2281    1.0172    4.4371 O   0  0  0  0  0  0  0  0  0  0  0  0
   30.2033   -1.1332    9.1778 C   0  0  1  0  0  0  0  0  0  0  0  0
   25.4435   -1.1249    4.9439 O   0  0  0  0  0  0  0  0  0  0  0  0
   28.7958   -0.6272    9.5077 C   0  0  2  0  0  0  0  0  0  0  0  0
   26.6939   -0.2489    8.4014 C   0  0  1  0  0  0  0  0  0  0  0  0
   27.5207    1.3838    6.8225 C   0  0  2  0  0  0  0  0  0  0  0  0
   27.7229    2.8841    6.5989 C   0  0  0  0  0  0  0  0  0  0  0  0
   26.6074    0.8502    5.7156 C   0  0  2  0  0  0  0  0  0  0  0  0
   26.3458   -0.6400    5.9400 C   0  0  1  0  0  0  0  0  0  0  0  0
   25.7534   -0.8306    7.3389 C   0  0  1  0  0  0  0  0  0  0  0  0
  5  4  1  1  0  0  0
  5  8  1  0  0  0  0
  5 16  1  0  0  0  0
  8  7  1  1  0  0  0
  8 10  1  0  0  0  0
 10  1  1  1  0  0  0
 10 12  1  0  0  0  0
 11 18  1  0  0  0  0
 12 14  1  0  0  0  0
 14  2  1  6  0  0  0
 14 16  1  0  0  0  0
 16  9  1  6  0  0  0
 17  9  1  6  0  0  0
 17 11  1  0  0  0  0
 17 22  1  0  0  0  0
 18 19  1  6  0  0  0
 18 20  1  0  0  0  0
 19  3  1  0  0  0  0
 20 13  1  6  0  0  0
 20 21  1  0  0  0  0
 21 15  1  6  0  0  0
 21 22  1  0  0  0  0
 22  6  1  1  0  0  0
M  END
>  <CHROM.1>
75.42620541,68.85840794,59.68471883,28.09182285,-0.29463896,8.63054328,-0.96191475
-0.57009178,-0.89586686

>  <Name>
2fcx_lig

>  <RI>
2.51704e+07

>  <Rbt.Current_Directory>
/home/itssahil/PROJECTS/Mol_Feturizer/New_Systems/rnas/2fcx

>  <Rbt.Executable>
rbdock ($Id: //depot/dev/client3/rdock/2013.1/src/exe/rbdock.cxx#4 $)

>  <Rbt.Library>
libRbt.so (2013.1, Build901 2013/11/27)

>  <Rbt.Parameter_File>
/export/apps/rDock/src/rDock_2013.1_src/data/scripts/dock_solv.prm

>  <Rbt.Receptor>
prm/blind_docking_80.prm

>  <SCORE>
-8.77243

>  <SCORE.INTER>
-6.85943

>  <SCORE.INTER.CONST>
1

>  <SCORE.INTER.POLAR>
-0.535908

>  <SCORE.INTER.ROT>
3

>  <SCORE.INTER.SOLV>
18.5757

>  <SCORE.INTER.VDW>
-14.5785

>  <SCORE.INTER.norm>
-0.311792

>  <SCORE.INTRA>
-1.913

>  <SCORE.INTRA.DIHEDRAL>
-3.38501

>  <SCORE.INTRA.DIHEDRAL.0>
4.88619

>  <SCORE.INTRA.POLAR>
0

>  <SCORE.INTRA.POLAR.0>
0

>  <SCORE.INTRA.REPUL>
0

>  <SCORE.INTRA.REPUL.0>
0

>  <SCORE.INTRA.SOLV>
-0.481646

>  <SCORE.INTRA.SOLV.lig_0>
-73.8187

>  <SCORE.INTRA.VDW>
0.0203228

>  <SCORE.INTRA.VDW.0>
-1.32335

>  <SCORE.INTRA.norm>
-0.0869547

>  <SCORE.RESTR>
0

>  <SCORE.RESTR.CAVITY>
0

>  <SCORE.RESTR.norm>
0

>  <SCORE.SYSTEM>
0

>  <SCORE.SYSTEM.CONST>
0

>  <SCORE.SYSTEM.DIHEDRAL>
0

>  <SCORE.SYSTEM.SOLV>
0

>  <SCORE.SYSTEM.norm>
0

>  <SCORE.heavy>
22

>  <SCORE.norm>
-0.398747

>  <RMSD>
13.052

$$$$
2fcx_lig
 OpenBabel11021811433D
libRbt.so/2013.1/901 2013/11/27
 22 23  0  0  0  0  0  0  0  0999 V2000
   33.1563   -1.8999    4.2213 N   0  0  0  0  0  0  0  0  0  0  0  0
   28.9743    0.0286    5.9143 N   0  0  0  0  0  0  0  0  0  0  0  0
   28.6315    3.6256    9.6022 N   0  0  0  0  0  0  0  0  0  0  0  0
   32.1856   -1.9259    9.0042 O   0  0  0  0  0  0  0  0  0  0  0  0
   31.6081   -2.0533    7.7020 C   0  0  2  0  0  0  0  0  0  0  0  0
   28.3474   -2.2324   10.8703 N   0  0  0  0  0  0  0  0  0  0  0  0
   33.5941   -3.0730    6.8220 O   0  0  0  0  0  0  0  0  0  0  0  0
   32.7020   -1.9679    6.6349 C   0  0  1  0  0  0  0  0  0  0  0  0
   29.4345   -1.2177    8.4148 O   0  0  0  0  0  0  0  0  0  0  0  0
   32.0958   -2.0316    5.2311 C   0  0  1  0  0  0  0  0  0  0  0  0
   29.4794    0.9536    9.2952 O   0  0  0  0  0  0  0  0  0  0  0  0
   31.0726   -0.9078    5.0348 C   0  0  0  0  0  0  0  0  0  0  0  0
   25.8313    1.4158    8.8960 O   0  0  0  0  0  0  0  0  0  0  0  0
   29.9655   -1.0432    6.0839 C   0  0  1  0  0  0  0  0  0  0  0  0
   25.9340   -0.6817   10.7986 O   0  0  0  0  0  0  0  0  0  0  0  0
   30.5253   -0.9847    7.5083 C   0  0  2  0  0  0  0  0  0  0  0  0
   29.5193   -0.4469    9.6258 C   0  0  1  0  0  0  0  0  0  0  0  0
   28.2513    1.3741    8.6675 C   0  0  2  0  0  0  0  0  0  0  0  0
   28.2819    2.8778    8.3852 C   0  0  0  0  0  0  0  0  0  0  0  0
   27.0487    1.0769    9.5673 C   0  0  2  0  0  0  0  0  0  0  0  0
   27.0190   -0.4139    9.9083 C   0  0  1  0  0  0  0  0  0  0  0  0
   28.3520   -0.7972   10.5566 C   0  0  1  0  0  0  0  0  0  0  0  0
  5  4  1  1  0  0  0
  5  8  1  0  0  0  0
  5 16  1  0  0  0  0
  8  7  1  1  0  0  0
  8 10  1  0  0  0  0
 10  1  1  6  0  0  0
 10 12  1  0  0  0  0
 11 18  1  0  0  0  0
 12 14  1  0  0  0  0
 14  2  1  1  0  0  0
 14 16  1  0  0  0  0
 16  9  1  1  0  0  0
 17  9  1  6  0  0  0
 17 11  1  0  0  0  0
 17 22  1  0  0  0  0
 18 19  1  1  0  0  0
 18 20  1  0  0  0  0
 19  3  1  0  0  0  0
 20 13  1  6  0  0  0
 20 21  1  0  0  0  0
 21 15  1  1  0  0  0
 21 22  1  0  0  0  0
 22  6  1  6  0  0  0
M  END
>  <CHROM.1>
95.88924200,61.61914407,-52.19676421,29.62577370,-0.47186349,8.15260043,0.09719195
0.73508940,-0.80703917

>  <Name>
2fcx_lig

>  <RI>
224

>  <Rbt.Current_Directory>
/home/itssahil/PROJECTS/Mol_Feturizer/New_Systems/rnas/2fcx

>  <Rbt.Executable>
rbdock ($Id: //depot/dev/client3/rdock/2013.1/src/exe/rbdock.cxx#4 $)

>  <Rbt.Library>
libRbt.so (2013.1, Build901 2013/11/27)

>  <Rbt.Parameter_File>
/export/apps/rDock/src/rDock_2013.1_src/data/scripts/dock_solv.prm

>  <Rbt.Receptor>
prm/blind_docking_100.prm

>  <SCORE>
-11.8776

>  <SCORE.INTER>
-12.39

>  <SCORE.INTER.CONST>
1

>  <SCORE.INTER.POLAR>
-1.85666

>  <SCORE.INTER.ROT>
3

>  <SCORE.INTER.SOLV>
9.45114

>  <SCORE.INTER.VDW>
-10.8215

>  <SCORE.INTER.norm>
-0.563184

>  <SCORE.INTRA>
0.511467

>  <SCORE.INTRA.DIHEDRAL>
0.0400203

>  <SCORE.INTRA.DIHEDRAL.0>
4.88619

>  <SCORE.INTRA.POLAR>
0

>  <SCORE.INTRA.POLAR.0>
0

>  <SCORE.INTRA.REPUL>
0

>  <SCORE.INTRA.REPUL.0>
0

>  <SCORE.INTRA.SOLV>
2.12281

>  <SCORE.INTRA.SOLV.lig_0>
-73.8187

>  <SCORE.INTRA.VDW>
-0.569946

>  <SCORE.INTRA.VDW.0>
-1.32335

>  <SCORE.INTRA.norm>
0.0232485

>  <SCORE.RESTR>
0.000983668

>  <SCORE.RESTR.CAVITY>
0.000983668

>  <SCORE.RESTR.norm>
4.47122e-05

>  <SCORE.SYSTEM>
0

>  <SCORE.SYSTEM.CONST>
0

>  <SCORE.SYSTEM.DIHEDRAL>
0

>  <SCORE.SYSTEM.SOLV>
0

>  <SCORE.SYSTEM.norm>
0

>  <SCORE.heavy>
22

>  <SCORE.norm>
-0.53989

>  <RMSD>
13.060

$$$$
2fcx_lig
 OpenBabel11021811433D
libRbt.so/2013.1/901 2013/11/27
 22 23  0  0  0  0  0  0  0  0999 V2000
   29.9648   -2.2109   12.3129 N   0  0  0  0  0  0  0  0  0  0  0  0
   32.1179   -1.3820    7.9826 N   0  0  0  0  0  0  0  0  0  0  0  0
   25.9710    1.4295    8.6906 N   0  0  0  0  0  0  0  0  0  0  0  0
   29.0156    1.8812    9.8284 O   0  0  0  0  0  0  0  0  0  0  0  0
   29.2828    0.4819    9.7016 C   0  0  2  0  0  0  0  0  0  0  0  0
   30.9768   -0.1287    4.8380 N   0  0  0  0  0  0  0  0  0  0  0  0
   28.1777   -0.0092   11.7742 O   0  0  0  0  0  0  0  0  0  0  0  0
   29.4272   -0.1500   11.0880 C   0  0  1  0  0  0  0  0  0  0  0  0
   30.2796    0.7150    7.4918 O   0  0  0  0  0  0  0  0  0  0  0  0
   29.7833   -1.6340   10.9727 C   0  0  1  0  0  0  0  0  0  0  0  0
   28.0467    0.0994    7.1349 O   0  0  0  0  0  0  0  0  0  0  0  0
   31.0743   -1.8171   10.1678 C   0  0  0  0  0  0  0  0  0  0  0  0
   27.3401    3.0753    5.0549 O   0  0  0  0  0  0  0  0  0  0  0  0
   30.8880   -1.2190    8.7706 C   0  0  1  0  0  0  0  0  0  0  0  0
   29.2558    1.7156    3.4701 O   0  0  0  0  0  0  0  0  0  0  0  0
   30.5300    0.2688    8.8350 C   0  0  2  0  0  0  0  0  0  0  0  0
   29.4099   -0.1571    6.7495 C   0  0  1  0  0  0  0  0  0  0  0  0
   27.5912    1.4330    6.8298 C   0  0  2  0  0  0  0  0  0  0  0  0
   26.1267    1.6051    7.2389 C   0  0  0  0  0  0  0  0  0  0  0  0
   27.7099    1.7207    5.3306 C   0  0  2  0  0  0  0  0  0  0  0  0
   29.1562    1.5086    4.8804 C   0  0  1  0  0  0  0  0  0  0  0  0
   29.5812    0.0836    5.2447 C   0  0  1  0  0  0  0  0  0  0  0  0
  5  4  1  1  0  0  0
  5  8  1  0  0  0  0
  5 16  1  0  0  0  0
  8  7  1  6  0  0  0
  8 10  1  0  0  0  0
 10  1  1  1  0  0  0
 10 12  1  0  0  0  0
 11 18  1  0  0  0  0
 12 14  1  0  0  0  0
 14  2  1  6  0  0  0
 14 16  1  0  0  0  0
 16  9  1  6  0  0  0
 17  9  1  1  0  0  0
 17 11  1  0  0  0  0
 17 22  1  0  0  0  0
 18 19  1  6  0  0  0
 18 20  1  0  0  0  0
 19  3  1  0  0  0  0
 20 13  1  1  0  0  0
 20 21  1  0  0  0  0
 21 15  1  6  0  0  0
 21 22  1  0  0  0  0
 22  6  1  1  0  0  0
M  END
>  <CHROM.1>
-72.91309899,79.34027921,62.19979281,29.14447490,0.37057247,7.91155244,-1.30402202
0.55172738,-1.29599899

>  <Name>
2fcx_lig

>  <RI>
224

>  <Rbt.Current_Directory>
/home/itssahil/PROJECTS/Mol_Feturizer/New_Systems/rnas/2fcx

>  <Rbt.Executable>
rbdock ($Id: //depot/dev/client3/rdock/2013.1/src/exe/rbdock.cxx#4 $)

>  <Rbt.Library>
libRbt.so (2013.1, Build901 2013/11/27)

>  <Rbt.Parameter_File>
/export/apps/rDock/src/rDock_2013.1_src/data/scripts/dock_solv.prm

>  <Rbt.Receptor>
prm/blind_docking_60.prm

>  <SCORE>
-15.7859

>  <SCORE.INTER>
-17.0109

>  <SCORE.INTER.CONST>
1

>  <SCORE.INTER.POLAR>
-2.83251

>  <SCORE.INTER.ROT>
3

>  <SCORE.INTER.SOLV>
11.4922

>  <SCORE.INTER.VDW>
-11.3296

>  <SCORE.INTER.norm>
-0.773222

>  <SCORE.INTRA>
1.22497

>  <SCORE.INTRA.DIHEDRAL>
-2.37658

>  <SCORE.INTRA.DIHEDRAL.0>
4.88619

>  <SCORE.INTRA.POLAR>
0

>  <SCORE.INTRA.POLAR.0>
0

>  <SCORE.INTRA.REPUL>
0

>  <SCORE.INTRA.REPUL.0>
0

>  <SCORE.INTRA.SOLV>
2.81081

>  <SCORE.INTRA.SOLV.lig_0>
-73.8187

>  <SCORE.INTRA.VDW>
1.00785

>  <SCORE.INTRA.VDW.0>
-1.32335

>  <SCORE.INTRA.norm>
0.0556803

>  <SCORE.RESTR>
0

>  <SCORE.RESTR.CAVITY>
0

>  <SCORE.RESTR.norm>
0

>  <SCORE.SYSTEM>
0

>  <SCORE.SYSTEM.CONST>
0

>  <SCORE.SYSTEM.DIHEDRAL>
0

>  <SCORE.SYSTEM.SOLV>
0

>  <SCORE.SYSTEM.norm>
0

>  <SCORE.heavy>
22

>  <SCORE.norm>
-0.717541

>  <RMSD>
13.061

$$$$
2fcx_lig
 OpenBabel11021811433D
libRbt.so/2013.1/901 2013/11/27
 22 23  0  0  0  0  0  0  0  0999 V2000
   32.8549   -0.6275    3.4315 N   0  0  0  0  0  0  0  0  0  0  0  0
   31.5643   -2.8042    7.6352 N   0  0  0  0  0  0  0  0  0  0  0  0
   30.5162   -2.9223   12.5001 N   0  0  0  0  0  0  0  0  0  0  0  0
   28.5768    0.4134    5.5371 O   0  0  0  0  0  0  0  0  0  0  0  0
   29.9500    0.1038    5.7900 C   0  0  2  0  0  0  0  0  0  0  0  0
   26.7242   -1.7006    8.0162 N   0  0  0  0  0  0  0  0  0  0  0  0
   30.6638    1.2173    3.7877 O   0  0  0  0  0  0  0  0  0  0  0  0
   30.7045   -0.0435    4.4665 C   0  0  1  0  0  0  0  0  0  0  0  0
   29.4833   -0.9107    7.9543 O   0  0  0  0  0  0  0  0  0  0  0  0
   32.1606   -0.4443    4.7145 C   0  0  1  0  0  0  0  0  0  0  0  0
   29.9614   -2.3242    9.7613 O   0  0  0  0  0  0  0  0  0  0  0  0
   32.2312   -1.7492    5.5148 C   0  0  0  0  0  0  0  0  0  0  0  0
   28.4464   -0.0248   12.2309 O   0  0  0  0  0  0  0  0  0  0  0  0
   31.5104   -1.5612    6.8528 C   0  0  1  0  0  0  0  0  0  0  0  0
   26.1941   -0.7476   10.6704 O   0  0  0  0  0  0  0  0  0  0  0  0
   30.0460   -1.1588    6.6551 C   0  0  2  0  0  0  0  0  0  0  0  0
   29.0804   -2.1066    8.6437 C   0  0  1  0  0  0  0  0  0  0  0  0
   29.9149   -1.2826   10.7572 C   0  0  2  0  0  0  0  0  0  0  0  0
   30.8518   -1.6128   11.9213 C   0  0  0  0  0  0  0  0  0  0  0  0
   28.4968   -1.1198   11.3111 C   0  0  2  0  0  0  0  0  0  0  0  0
   27.5267   -0.8373   10.1627 C   0  0  1  0  0  0  0  0  0  0  0  0
   27.6350   -1.9689    9.1372 C   0  0  1  0  0  0  0  0  0  0  0  0
  5  4  1  6  0  0  0
  5  8  1  0  0  0  0
  5 16  1  0  0  0  0
  8  7  1  1  0  0  0
  8 10  1  0  0  0  0
 10  1  1  6  0  0  0
 10 12  1  0  0  0  0
 11 18  1  0  0  0  0
 12 14  1  0  0  0  0
 14  2  1  6  0  0  0
 14 16  1  0  0  0  0
 16  9  1  1  0  0  0
 17  9  1  1  0  0  0
 17 11  1  0  0  0  0
 17 22  1  0  0  0  0
 18 19  1  1  0  0  0
 18 20  1  0  0  0  0
 19  3  1  0  0  0  0
 20 13  1  1  0  0  0
 20 21  1  0  0  0  0
 21 15  1  1  0  0  0
 21 22  1  0  0  0  0
 22  6  1  6  0  0  0
M  END
>  <CHROM.1>
158.39030116,110.65578891,-56.25838631,29.74531425,-1.07535689,8.08290799
-1.16414992,-0.33002000,1.87447286

>  <Name>
2fcx_lig

>  <RI>
224

>  <Rbt.Current_Directory>
/home/itssahil/PROJECTS/Mol_Feturizer/New_Systems/rnas/2fcx

>  <Rbt.Executable>
rbdock ($Id: //depot/dev/client3/rdock/2013.1/src/exe/rbdock.cxx#4 $)

>  <Rbt.Library>
libRbt.so (2013.1, Build901 2013/11/27)

>  <Rbt.Parameter_File>
/export/apps/rDock/src/rDock_2013.1_src/data/scripts/dock_solv.prm

>  <Rbt.Receptor>
prm/blind_docking_100.prm

>  <SCORE>
-8.83949

>  <SCORE.INTER>
-12.4715

>  <SCORE.INTER.CONST>
1

>  <SCORE.INTER.POLAR>
-1

>  <SCORE.INTER.ROT>
3

>  <SCORE.INTER.SOLV>
8.88185

>  <SCORE.INTER.VDW>
-13.5416

>  <SCORE.INTER.norm>
-0.566886

>  <SCORE.INTRA>
3.63199

>  <SCORE.INTRA.DIHEDRAL>
4.01437

>  <SCORE.INTRA.DIHEDRAL.0>
4.88619

>  <SCORE.INTRA.POLAR>
0

>  <SCORE.INTRA.POLAR.0>
0

>  <SCORE.INTRA.REPUL>
0

>  <SCORE.INTRA.REPUL.0>
0

>  <SCORE.INTRA.SOLV>
2.98599

>  <SCORE.INTRA.SOLV.lig_0>
-73.8187

>  <SCORE.INTRA.VDW>
0.131815

>  <SCORE.INTRA.VDW.0>
-1.32335

>  <SCORE.INTRA.norm>
0.165091

>  <SCORE.RESTR>
0

>  <SCORE.RESTR.CAVITY>
0

>  <SCORE.RESTR.norm>
0

>  <SCORE.SYSTEM>
0

>  <SCORE.SYSTEM.CONST>
0

>  <SCORE.SYSTEM.DIHEDRAL>
0

>  <SCORE.SYSTEM.SOLV>
0

>  <SCORE.SYSTEM.norm>
0

>  <SCORE.heavy>
22

>  <SCORE.norm>
-0.401795

>  <RMSD>
13.067

$$$$
2fcx_lig
 OpenBabel11021811433D
libRbt.so/2013.1/901 2013/11/27
 22 23  0  0  0  0  0  0  0  0999 V2000
   33.0933   -1.1338    3.4944 N   0  0  0  0  0  0  0  0  0  0  0  0
   28.9642    0.8095    5.2969 N   0  0  0  0  0  0  0  0  0  0  0  0
   29.1675    3.7323    7.9367 N   0  0  0  0  0  0  0  0  0  0  0  0
   31.9311   -1.7344    8.1962 O   0  0  0  0  0  0  0  0  0  0  0  0
   31.4001   -1.6515    6.8708 C   0  0  2  0  0  0  0  0  0  0  0  0
   28.3235   -2.4516    9.7645 N   0  0  0  0  0  0  0  0  0  0  0  0
   33.3580   -2.6670    5.9255 O   0  0  0  0  0  0  0  0  0  0  0  0
   32.5391   -1.4934    5.8608 C   0  0  1  0  0  0  0  0  0  0  0  0
   29.2511   -0.7842    7.6197 O   0  0  0  0  0  0  0  0  0  0  0  0
   31.9872   -1.3322    4.4425 C   0  0  1  0  0  0  0  0  0  0  0  0
   29.3751    1.0577    9.0632 O   0  0  0  0  0  0  0  0  0  0  0  0
   31.0390   -0.1307    4.3669 C   0  0  0  0  0  0  0  0  0  0  0  0
   25.7127    1.5756    9.0552 O   0  0  0  0  0  0  0  0  0  0  0  0
   29.8846   -0.3350    5.3520 C   0  0  1  0  0  0  0  0  0  0  0  0
   25.9249   -0.9665   10.2892 O   0  0  0  0  0  0  0  0  0  0  0  0
   30.3891   -0.5013    6.7885 C   0  0  2  0  0  0  0  0  0  0  0  0
   29.4247   -0.3790    8.9885 C   0  0  1  0  0  0  0  0  0  0  0  0
   28.1112    1.6235    8.6613 C   0  0  2  0  0  0  0  0  0  0  0  0
   28.1362    3.1467    8.8062 C   0  0  0  0  0  0  0  0  0  0  0  0
   26.9696    1.0760    9.5222 C   0  0  2  0  0  0  0  0  0  0  0  0
   26.9496   -0.4511    9.4372 C   0  0  1  0  0  0  0  0  0  0  0  0
   28.3198   -0.9858    9.8620 C   0  0  1  0  0  0  0  0  0  0  0  0
  5  4  1  1  0  0  0
  5  8  1  0  0  0  0
  5 16  1  0  0  0  0
  8  7  1  6  0  0  0
  8 10  1  0  0  0  0
 10  1  1  6  0  0  0
 10 12  1  0  0  0  0
 11 18  1  0  0  0  0
 12 14  1  0  0  0  0
 14  2  1  1  0  0  0
 14 16  1  0  0  0  0
 16  9  1  1  0  0  0
 17  9  1  6  0  0  0
 17 11  1  0  0  0  0
 17 22  1  0  0  0  0
 18 19  1  1  0  0  0
 18 20  1  0  0  0  0
 19  3  1  0  0  0  0
 20 13  1  6  0  0  0
 20 21  1  0  0  0  0
 21 15  1  1  0  0  0
 21 22  1  0  0  0  0
 22  6  1  6  0  0  0
M  END
>  <CHROM.1>
86.24137403,71.87323032,61.62313610,29.54412928,-0.18780779,7.55755593,0.05809192
0.74821410,-0.56175792

>  <Name>
2fcx_lig

>  <RI>
224

>  <Rbt.Current_Directory>
/home/itssahil/PROJECTS/Mol_Feturizer/New_Systems/rnas/2fcx

>  <Rbt.Executable>
rbdock ($Id: //depot/dev/client3/rdock/2013.1/src/exe/rbdock.cxx#4 $)

>  <Rbt.Library>
libRbt.so (2013.1, Build901 2013/11/27)

>  <Rbt.Parameter_File>
/export/apps/rDock/src/rDock_2013.1_src/data/scripts/dock_solv.prm

>  <Rbt.Receptor>
prm/blind_docking_100.prm

>  <SCORE>
-9.70611

>  <SCORE.INTER>
-8.88793

>  <SCORE.INTER.CONST>
1

>  <SCORE.INTER.POLAR>
-0.840816

>  <SCORE.INTER.ROT>
3

>  <SCORE.INTER.SOLV>
6.47862

>  <SCORE.INTER.VDW>
-10.8821

>  <SCORE.INTER.norm>
-0.403997

>  <SCORE.INTRA>
-0.81818

>  <SCORE.INTRA.DIHEDRAL>
-1.29986

>  <SCORE.INTRA.DIHEDRAL.0>
4.88619

>  <SCORE.INTRA.POLAR>
0

>  <SCORE.INTRA.POLAR.0>
0

>  <SCORE.INTRA.REPUL>
0

>  <SCORE.INTRA.REPUL.0>
0

>  <SCORE.INTRA.SOLV>
0.718245

>  <SCORE.INTRA.SOLV.lig_0>
-73.8187

>  <SCORE.INTRA.VDW>
-0.527374

>  <SCORE.INTRA.VDW.0>
-1.32335

>  <SCORE.INTRA.norm>
-0.03719

>  <SCORE.RESTR>
0

>  <SCORE.RESTR.CAVITY>
0

>  <SCORE.RESTR.norm>
0

>  <SCORE.SYSTEM>
0

>  <SCORE.SYSTEM.CONST>
0

>  <SCORE.SYSTEM.DIHEDRAL>
0

>  <SCORE.SYSTEM.SOLV>
0

>  <SCORE.SYSTEM.norm>
0

>  <SCORE.heavy>
22

>  <SCORE.norm>
-0.441187

>  <RMSD>
13.089

$$$$
2fcx_lig
 OpenBabel11021811433D
libRbt.so/2013.1/901 2013/11/27
 22 23  0  0  0  0  0  0  0  0999 V2000
   33.1908   -1.2847    3.5260 N   0  0  0  0  0  0  0  0  0  0  0  0
   29.1814    0.9629    5.2429 N   0  0  0  0  0  0  0  0  0  0  0  0
   29.2077    3.8307    8.0668 N   0  0  0  0  0  0  0  0  0  0  0  0
   31.8616   -1.8320    8.1900 O   0  0  0  0  0  0  0  0  0  0  0  0
   31.3739   -1.6960    6.8524 C   0  0  2  0  0  0  0  0  0  0  0  0
   28.3562   -2.4259    9.6281 N   0  0  0  0  0  0  0  0  0  0  0  0
   33.2700   -2.8547    5.9467 O   0  0  0  0  0  0  0  0  0  0  0  0
   32.5479   -1.6197    5.8735 C   0  0  1  0  0  0  0  0  0  0  0  0
   29.2808   -0.6683    7.5552 O   0  0  0  0  0  0  0  0  0  0  0  0
   32.0480   -1.4032    4.4433 C   0  0  1  0  0  0  0  0  0  0  0  0
   29.4154    1.1080    9.0778 O   0  0  0  0  0  0  0  0  0  0  0  0
   31.1996   -0.1301    4.3563 C   0  0  0  0  0  0  0  0  0  0  0  0
   25.7545    1.6358    9.1066 O   0  0  0  0  0  0  0  0  0  0  0  0
   30.0071   -0.2511    5.3093 C   0  0  1  0  0  0  0  0  0  0  0  0
   25.9639   -0.9587   10.2268 O   0  0  0  0  0  0  0  0  0  0  0  0
   30.4590   -0.4690    6.7564 C   0  0  2  0  0  0  0  0  0  0  0  0
   29.4605   -0.3242    8.9398 C   0  0  1  0  0  0  0  0  0  0  0  0
   28.1517    1.6943    8.7060 C   0  0  2  0  0  0  0  0  0  0  0  0
   28.1817    3.2096    8.9177 C   0  0  0  0  0  0  0  0  0  0  0  0
   27.0117    1.1126    9.5464 C   0  0  2  0  0  0  0  0  0  0  0  0
   26.9869   -0.4092    9.3943 C   0  0  1  0  0  0  0  0  0  0  0  0
   28.3572   -0.9658    9.7900 C   0  0  1  0  0  0  0  0  0  0  0  0
  5  4  1  1  0  0  0
  5  8  1  0  0  0  0
  5 16  1  0  0  0  0
  8  7  1  6  0  0  0
  8 10  1  0  0  0  0
 10  1  1  6  0  0  0
 10 12  1  0  0  0  0
 11 18  1  0  0  0  0
 12 14  1  0  0  0  0
 14  2  1  1  0  0  0
 14 16  1  0  0  0  0
 16  9  1  1  0  0  0
 17  9  1  6  0  0  0
 17 11  1  0  0  0  0
 17 22  1  0  0  0  0
 18 19  1  1  0  0  0
 18 20  1  0  0  0  0
 19  3  1  0  0  0  0
 20 13  1  6  0  0  0
 20 21  1  0  0  0  0
 21 15  1  1  0  0  0
 21 22  1  0  0  0  0
 22  6  1  6  0  0  0
M  END
>  <CHROM.1>
84.63816378,77.37314907,61.85340811,29.58857289,-0.17771652,7.55113048,-0.01155652
0.76298775,-0.49878258

>  <Name>
2fcx_lig

>  <RI>
2.51704e+07

>  <Rbt.Current_Directory>
/home/itssahil/PROJECTS/Mol_Feturizer/New_Systems/rnas/2fcx

>  <Rbt.Executable>
rbdock ($Id: //depot/dev/client3/rdock/2013.1/src/exe/rbdock.cxx#4 $)

>  <Rbt.Library>
libRbt.so (2013.1, Build901 2013/11/27)

>  <Rbt.Parameter_File>
/export/apps/rDock/src/rDock_2013.1_src/data/scripts/dock_solv.prm

>  <Rbt.Receptor>
prm/blind_docking_80.prm

>  <SCORE>
-9.72427

>  <SCORE.INTER>
-9.13687

>  <SCORE.INTER.CONST>
1

>  <SCORE.INTER.POLAR>
-0.799542

>  <SCORE.INTER.ROT>
3

>  <SCORE.INTER.SOLV>
6.66716

>  <SCORE.INTER.VDW>
-11.2485

>  <SCORE.INTER.norm>
-0.415312

>  <SCORE.INTRA>
-0.587401

>  <SCORE.INTRA.DIHEDRAL>
-0.874903

>  <SCORE.INTRA.DIHEDRAL.0>
4.88619

>  <SCORE.INTRA.POLAR>
0

>  <SCORE.INTRA.POLAR.0>
0

>  <SCORE.INTRA.REPUL>
0

>  <SCORE.INTRA.REPUL.0>
0

>  <SCORE.INTRA.SOLV>
0.609249

>  <SCORE.INTRA.SOLV.lig_0>
-73.8187

>  <SCORE.INTRA.VDW>
-0.454575

>  <SCORE.INTRA.VDW.0>
-1.32335

>  <SCORE.INTRA.norm>
-0.0267001

>  <SCORE.RESTR>
0

>  <SCORE.RESTR.CAVITY>
0

>  <SCORE.RESTR.norm>
0

>  <SCORE.SYSTEM>
0

>  <SCORE.SYSTEM.CONST>
0

>  <SCORE.SYSTEM.DIHEDRAL>
0

>  <SCORE.SYSTEM.SOLV>
0

>  <SCORE.SYSTEM.norm>
0

>  <SCORE.heavy>
22

>  <SCORE.norm>
-0.442012

>  <RMSD>
13.095

$$$$
2fcx_lig
 OpenBabel11021811433D
libRbt.so/2013.1/901 2013/11/27
 22 23  0  0  0  0  0  0  0  0999 V2000
   33.3132   -0.6476    3.4000 N   0  0  0  0  0  0  0  0  0  0  0  0
   31.9661   -2.8011    7.5980 N   0  0  0  0  0  0  0  0  0  0  0  0
   26.1243    2.4694    6.9466 N   0  0  0  0  0  0  0  0  0  0  0  0
   28.7929   -0.0496    5.1403 O   0  0  0  0  0  0  0  0  0  0  0  0
   30.1693   -0.1816    5.5058 C   0  0  2  0  0  0  0  0  0  0  0  0
   30.1808   -1.2281   10.4984 N   0  0  0  0  0  0  0  0  0  0  0  0
   30.9000    0.9321    3.5098 O   0  0  0  0  0  0  0  0  0  0  0  0
   31.0358   -0.2876    4.2486 C   0  0  1  0  0  0  0  0  0  0  0  0
   29.6591   -1.1611    7.6763 O   0  0  0  0  0  0  0  0  0  0  0  0
   32.5053   -0.5003    4.6195 C   0  0  1  0  0  0  0  0  0  0  0  0
   29.5358    1.1786    7.7227 O   0  0  0  0  0  0  0  0  0  0  0  0
   32.6663   -1.7556    5.4837 C   0  0  0  0  0  0  0  0  0  0  0  0
   26.1617    1.1795    9.2382 O   0  0  0  0  0  0  0  0  0  0  0  0
   31.8274   -1.6046    6.7558 C   0  0  1  0  0  0  0  0  0  0  0  0
   27.7083   -0.0084   11.2941 O   0  0  0  0  0  0  0  0  0  0  0  0
   30.3455   -1.3894    6.4343 C   0  0  2  0  0  0  0  0  0  0  0  0
   30.0990    0.0210    8.3669 C   0  0  1  0  0  0  0  0  0  0  0  0
   28.0956    1.2323    7.7659 C   0  0  2  0  0  0  0  0  0  0  0  0
   27.5870    2.5088    7.0922 C   0  0  0  0  0  0  0  0  0  0  0  0
   27.5919    1.2168    9.2117 C   0  0  2  0  0  0  0  0  0  0  0  0
   28.1256   -0.0250    9.9277 C   0  0  1  0  0  0  0  0  0  0  0  0
   29.6537   -0.0288    9.8335 C   0  0  1  0  0  0  0  0  0  0  0  0
  5  4  1  6  0  0  0
  5  8  1  0  0  0  0
  5 16  1  0  0  0  0
  8  7  1  1  0  0  0
  8 10  1  0  0  0  0
 10  1  1  6  0  0  0
 10 12  1  0  0  0  0
 11 18  1  0  0  0  0
 12 14  1  0  0  0  0
 14  2  1  1  0  0  0
 14 16  1  0  0  0  0
 16  9  1  1  0  0  0
 17  9  1  6  0  0  0
 17 11  1  0  0  0  0
 17 22  1  0  0  0  0
 18 19  1  1  0  0  0
 18 20  1  0  0  0  0
 19  3  1  0  0  0  0
 20 13  1  6  0  0  0
 20 21  1  0  0  0  0
 21 15  1  1  0  0  0
 21 22  1  0  0  0  0
 22  6  1  6  0  0  0
M  END
>  <CHROM.1>
-57.81807978,76.48106003,171.18149917,29.68640247,-0.02370822,7.20074544
0.60565532,0.63206537,-1.20417279

>  <Name>
2fcx_lig

>  <RI>
2.51704e+07

>  <Rbt.Current_Directory>
/home/itssahil/PROJECTS/Mol_Feturizer/New_Systems/rnas/2fcx

>  <Rbt.Executable>
rbdock ($Id: //depot/dev/client3/rdock/2013.1/src/exe/rbdock.cxx#4 $)

>  <Rbt.Library>
libRbt.so (2013.1, Build901 2013/11/27)

>  <Rbt.Parameter_File>
/export/apps/rDock/src/rDock_2013.1_src/data/scripts/dock_solv.prm

>  <Rbt.Receptor>
prm/blind_docking_80.prm

>  <SCORE>
-12.2307

>  <SCORE.INTER>
-13.1839

>  <SCORE.INTER.CONST>
1

>  <SCORE.INTER.POLAR>
-1.7467

>  <SCORE.INTER.ROT>
3

>  <SCORE.INTER.SOLV>
6.04927

>  <SCORE.INTER.VDW>
-10.5833

>  <SCORE.INTER.norm>
-0.599267

>  <SCORE.INTRA>
0.953198

>  <SCORE.INTRA.DIHEDRAL>
-3.31481

>  <SCORE.INTRA.DIHEDRAL.0>
4.88619

>  <SCORE.INTRA.POLAR>
0

>  <SCORE.INTRA.POLAR.0>
0

>  <SCORE.INTRA.REPUL>
0

>  <SCORE.INTRA.REPUL.0>
0

>  <SCORE.INTRA.SOLV>
2.09741

>  <SCORE.INTRA.SOLV.lig_0>
-73.8187

>  <SCORE.INTRA.VDW>
1.5619

>  <SCORE.INTRA.VDW.0>
-1.32335

>  <SCORE.INTRA.norm>
0.0433272

>  <SCORE.RESTR>
0

>  <SCORE.RESTR.CAVITY>
0

>  <SCORE.RESTR.norm>
0

>  <SCORE.SYSTEM>
0

>  <SCORE.SYSTEM.CONST>
0

>  <SCORE.SYSTEM.DIHEDRAL>
0

>  <SCORE.SYSTEM.SOLV>
0

>  <SCORE.SYSTEM.norm>
0

>  <SCORE.heavy>
22

>  <SCORE.norm>
-0.55594

>  <RMSD>
13.108

$$$$
2fcx_lig
 OpenBabel11021811433D
libRbt.so/2013.1/901 2013/11/27
 22 23  0  0  0  0  0  0  0  0999 V2000
   28.2752    5.0739   10.1001 N   0  0  0  0  0  0  0  0  0  0  0  0
   31.3836    3.6302    6.5890 N   0  0  0  0  0  0  0  0  0  0  0  0
   28.0335    2.8491    3.3377 N   0  0  0  0  0  0  0  0  0  0  0  0
   27.6719    0.7646    7.8898 O   0  0  0  0  0  0  0  0  0  0  0  0
   28.6446    1.6917    8.3798 C   0  0  2  0  0  0  0  0  0  0  0  0
   31.1967   -1.7314    6.6590 N   0  0  0  0  0  0  0  0  0  0  0  0
   27.2074    2.3932   10.1689 O   0  0  0  0  0  0  0  0  0  0  0  0
   27.9453    2.8811    9.0422 C   0  0  1  0  0  0  0  0  0  0  0  0
   30.3370    1.0053    6.7688 O   0  0  0  0  0  0  0  0  0  0  0  0
   28.9680    3.9188    9.5107 C   0  0  1  0  0  0  0  0  0  0  0  0
   28.8706    0.6495    4.9758 O   0  0  0  0  0  0  0  0  0  0  0  0
   29.8290    4.3950    8.3359 C   0  0  0  0  0  0  0  0  0  0  0  0
   31.5917    0.6851    2.4707 O   0  0  0  0  0  0  0  0  0  0  0  0
   30.5536    3.1944    7.7209 C   0  0  1  0  0  0  0  0  0  0  0  0
   32.2494   -1.6132    3.9922 O   0  0  0  0  0  0  0  0  0  0  0  0
   29.5686    2.1266    7.2358 C   0  0  2  0  0  0  0  0  0  0  0  0
   29.5520    0.0194    6.0763 C   0  0  1  0  0  0  0  0  0  0  0  0
   29.7524    1.1979    3.9755 C   0  0  2  0  0  0  0  0  0  0  0  0
   28.9456    1.8133    2.8300 C   0  0  0  0  0  0  0  0  0  0  0  0
   30.6621    0.1117    3.3952 C   0  0  2  0  0  0  0  0  0  0  0  0
   31.4472   -0.5575    4.5246 C   0  0  1  0  0  0  0  0  0  0  0  0
   30.4565   -1.1043    5.5558 C   0  0  1  0  0  0  0  0  0  0  0  0
  5  4  1  6  0  0  0
  5  8  1  0  0  0  0
  5 16  1  0  0  0  0
  8  7  1  1  0  0  0
  8 10  1  0  0  0  0
 10  1  1  6  0  0  0
 10 12  1  0  0  0  0
 11 18  1  0  0  0  0
 12 14  1  0  0  0  0
 14  2  1  6  0  0  0
 14 16  1  0  0  0  0
 16  9  1  1  0  0  0
 17  9  1  6  0  0  0
 17 11  1  0  0  0  0
 17 22  1  0  0  0  0
 18 19  1  6  0  0  0
 18 20  1  0  0  0  0
 19  3  1  0  0  0  0
 20 13  1  6  0  0  0
 20 21  1  0  0  0  0
 21 15  1  6  0  0  0
 21 22  1  0  0  0  0
 22  6  1  1  0  0  0
M  END
>  <CHROM.1>
69.52113573,56.63589276,57.27937139,29.68480812,1.48999668,6.32454706,2.68271619
-1.17993673,2.06673608

>  <Name>
2fcx_lig

>  <RI>
2.51704e+07

>  <Rbt.Current_Directory>
/home/itssahil/PROJECTS/Mol_Feturizer/New_Systems/rnas/2fcx

>  <Rbt.Executable>
rbdock ($Id: //depot/dev/client3/rdock/2013.1/src/exe/rbdock.cxx#4 $)

>  <Rbt.Library>
libRbt.so (2013.1, Build901 2013/11/27)

>  <Rbt.Parameter_File>
/export/apps/rDock/src/rDock_2013.1_src/data/scripts/dock_solv.prm

>  <Rbt.Receptor>
prm/blind_docking_80.prm

>  <SCORE>
-8.08092

>  <SCORE.INTER>
-6.12387

>  <SCORE.INTER.CONST>
1

>  <SCORE.INTER.POLAR>
-0.611447

>  <SCORE.INTER.ROT>
3

>  <SCORE.INTER.SOLV>
20.3375

>  <SCORE.INTER.VDW>
-14.4236

>  <SCORE.INTER.norm>
-0.278358

>  <SCORE.INTRA>
-2.0048

>  <SCORE.INTRA.DIHEDRAL>
-4.35549

>  <SCORE.INTRA.DIHEDRAL.0>
4.88619

>  <SCORE.INTRA.POLAR>
0

>  <SCORE.INTRA.POLAR.0>
0

>  <SCORE.INTRA.REPUL>
0

>  <SCORE.INTRA.REPUL.0>
0

>  <SCORE.INTRA.SOLV>
-0.70499

>  <SCORE.INTRA.SOLV.lig_0>
-73.8187

>  <SCORE.INTRA.VDW>
0.525442

>  <SCORE.INTRA.VDW.0>
-1.32335

>  <SCORE.INTRA.norm>
-0.0911273

>  <SCORE.RESTR>
0.0477525

>  <SCORE.RESTR.CAVITY>
0.0477525

>  <SCORE.RESTR.norm>
0.00217057

>  <SCORE.SYSTEM>
0

>  <SCORE.SYSTEM.CONST>
0

>  <SCORE.SYSTEM.DIHEDRAL>
0

>  <SCORE.SYSTEM.SOLV>
0

>  <SCORE.SYSTEM.norm>
0

>  <SCORE.heavy>
22

>  <SCORE.norm>
-0.367314

>  <RMSD>
13.133

$$$$
2fcx_lig
 OpenBabel11021811433D
libRbt.so/2013.1/901 2013/11/27
 22 23  0  0  0  0  0  0  0  0999 V2000
   32.5177    0.0810    2.3384 N   0  0  0  0  0  0  0  0  0  0  0  0
   28.5128    1.2998    4.8978 N   0  0  0  0  0  0  0  0  0  0  0  0
   28.9535    3.3720    9.8873 N   0  0  0  0  0  0  0  0  0  0  0  0
   32.0017   -1.3918    6.9626 O   0  0  0  0  0  0  0  0  0  0  0  0
   31.3042   -1.1431    5.7390 C   0  0  2  0  0  0  0  0  0  0  0  0
   28.4052   -2.5198    8.8571 N   0  0  0  0  0  0  0  0  0  0  0  0
   33.1989   -1.7985    4.4203 O   0  0  0  0  0  0  0  0  0  0  0  0
   32.2927   -0.7136    4.6523 C   0  0  1  0  0  0  0  0  0  0  0  0
   29.2070   -0.6192    6.8607 O   0  0  0  0  0  0  0  0  0  0  0  0
   31.5570   -0.3748    3.3537 C   0  0  1  0  0  0  0  0  0  0  0  0
   29.4884    1.0316    8.5001 O   0  0  0  0  0  0  0  0  0  0  0  0
   30.5194    0.7270    3.5943 C   0  0  0  0  0  0  0  0  0  0  0  0
   25.8506    1.6047    8.8453 O   0  0  0  0  0  0  0  0  0  0  0  0
   29.5161    0.2547    4.6502 C   0  0  1  0  0  0  0  0  0  0  0  0
   26.0926   -1.0715    9.7450 O   0  0  0  0  0  0  0  0  0  0  0  0
   30.2075   -0.0965    5.9709 C   0  0  2  0  0  0  0  0  0  0  0  0
   29.4956   -0.3861    8.2500 C   0  0  1  0  0  0  0  0  0  0  0  0
   28.2121    1.6620    8.2706 C   0  0  2  0  0  0  0  0  0  0  0  0
   28.2869    3.1557    8.5945 C   0  0  0  0  0  0  0  0  0  0  0  0
   27.1266    1.0322    9.1477 C   0  0  2  0  0  0  0  0  0  0  0  0
   27.0614   -0.4728    8.8821 C   0  0  1  0  0  0  0  0  0  0  0  0
   28.4463   -1.0768    9.1296 C   0  0  1  0  0  0  0  0  0  0  0  0
  5  4  1  1  0  0  0
  5  8  1  0  0  0  0
  5 16  1  0  0  0  0
  8  7  1  6  0  0  0
  8 10  1  0  0  0  0
 10  1  1  6  0  0  0
 10 12  1  0  0  0  0
 11 18  1  0  0  0  0
 12 14  1  0  0  0  0
 14  2  1  1  0  0  0
 14 16  1  0  0  0  0
 16  9  1  1  0  0  0
 17  9  1  6  0  0  0
 17 11  1  0  0  0  0
 17 22  1  0  0  0  0
 18 19  1  1  0  0  0
 18 20  1  0  0  0  0
 19  3  1  0  0  0  0
 20 13  1  6  0  0  0
 20 21  1  0  0  0  0
 21 15  1  1  0  0  0
 21 22  1  0  0  0  0
 22  6  1  6  0  0  0
M  END
>  <CHROM.1>
88.41005175,64.17366115,-46.82968623,29.45814997,0.10542934,6.91689899,0.17452566
0.84661358,-0.49075862

>  <Name>
2fcx_lig

>  <RI>
2.51704e+07

>  <Rbt.Current_Directory>
/home/itssahil/PROJECTS/Mol_Feturizer/New_Systems/rnas/2fcx

>  <Rbt.Executable>
rbdock ($Id: //depot/dev/client3/rdock/2013.1/src/exe/rbdock.cxx#4 $)

>  <Rbt.Library>
libRbt.so (2013.1, Build901 2013/11/27)

>  <Rbt.Parameter_File>
/export/apps/rDock/src/rDock_2013.1_src/data/scripts/dock_solv.prm

>  <Rbt.Receptor>
prm/blind_docking_80.prm

>  <SCORE>
-12.3502

>  <SCORE.INTER>
-12.2138

>  <SCORE.INTER.CONST>
1

>  <SCORE.INTER.POLAR>
-1.8135

>  <SCORE.INTER.ROT>
3

>  <SCORE.INTER.SOLV>
10.6297

>  <SCORE.INTER.VDW>
-11.2408

>  <SCORE.INTER.norm>
-0.555174

>  <SCORE.INTRA>
-0.13635

>  <SCORE.INTRA.DIHEDRAL>
-0.896608

>  <SCORE.INTRA.DIHEDRAL.0>
4.88619

>  <SCORE.INTRA.POLAR>
0

>  <SCORE.INTRA.POLAR.0>
0

>  <SCORE.INTRA.REPUL>
0

>  <SCORE.INTRA.REPUL.0>
0

>  <SCORE.INTRA.SOLV>
1.47105

>  <SCORE.INTRA.SOLV.lig_0>
-73.8187

>  <SCORE.INTRA.VDW>
-0.423571

>  <SCORE.INTRA.VDW.0>
-1.32335

>  <SCORE.INTRA.norm>
-0.00619772

>  <SCORE.RESTR>
0

>  <SCORE.RESTR.CAVITY>
0

>  <SCORE.RESTR.norm>
0

>  <SCORE.SYSTEM>
0

>  <SCORE.SYSTEM.CONST>
0

>  <SCORE.SYSTEM.DIHEDRAL>
0

>  <SCORE.SYSTEM.SOLV>
0

>  <SCORE.SYSTEM.norm>
0

>  <SCORE.heavy>
22

>  <SCORE.norm>
-0.561372

>  <RMSD>
13.143

$$$$
2fcx_lig
 OpenBabel11021811433D
libRbt.so/2013.1/901 2013/11/27
 22 23  0  0  0  0  0  0  0  0999 V2000
   32.6018   -0.0011    2.4983 N   0  0  0  0  0  0  0  0  0  0  0  0
   28.6399    1.3641    5.0505 N   0  0  0  0  0  0  0  0  0  0  0  0
   27.3908    3.8836    8.2949 N   0  0  0  0  0  0  0  0  0  0  0  0
   31.9593   -1.5599    7.0783 O   0  0  0  0  0  0  0  0  0  0  0  0
   31.2891   -1.2439    5.8550 C   0  0  2  0  0  0  0  0  0  0  0  0
   28.3340   -2.6041    8.8689 N   0  0  0  0  0  0  0  0  0  0  0  0
   33.1604   -1.9657    4.5377 O   0  0  0  0  0  0  0  0  0  0  0  0
   32.3104   -0.8404    4.7889 C   0  0  1  0  0  0  0  0  0  0  0  0
   29.2106   -0.6377    6.9701 O   0  0  0  0  0  0  0  0  0  0  0  0
   31.6076   -0.4306    3.4927 C   0  0  1  0  0  0  0  0  0  0  0  0
   29.5680    0.9114    8.6918 O   0  0  0  0  0  0  0  0  0  0  0  0
   30.6272    0.7184    3.7516 C   0  0  0  0  0  0  0  0  0  0  0  0
   25.9593    1.6211    9.0861 O   0  0  0  0  0  0  0  0  0  0  0  0
   29.5890    0.2737    4.7856 C   0  0  1  0  0  0  0  0  0  0  0  0
   26.0887   -1.1065    9.8436 O   0  0  0  0  0  0  0  0  0  0  0  0
   30.2468   -0.1467    6.1033 C   0  0  2  0  0  0  0  0  0  0  0  0
   29.5133   -0.4902    8.3681 C   0  0  1  0  0  0  0  0  0  0  0  0
   28.3193    1.6071    8.5024 C   0  0  2  0  0  0  0  0  0  0  0  0
   28.4593    3.0772    8.9035 C   0  0  0  0  0  0  0  0  0  0  0  0
   27.2104    0.9793    9.3513 C   0  0  2  0  0  0  0  0  0  0  0  0
   27.0796   -0.5055    9.0079 C   0  0  1  0  0  0  0  0  0  0  0  0
   28.4380   -1.1804    9.2160 C   0  0  1  0  0  0  0  0  0  0  0  0
  5  4  1  1  0  0  0
  5  8  1  0  0  0  0
  5 16  1  0  0  0  0
  8  7  1  6  0  0  0
  8 10  1  0  0  0  0
 10  1  1  6  0  0  0
 10 12  1  0  0  0  0
 11 18  1  0  0  0  0
 12 14  1  0  0  0  0
 14  2  1  1  0  0  0
 14 16  1  0  0  0  0
 16  9  1  1  0  0  0
 17  9  1  6  0  0  0
 17 11  1  0  0  0  0
 17 22  1  0  0  0  0
 18 19  1  1  0  0  0
 18 20  1  0  0  0  0
 19  3  1  0  0  0  0
 20 13  1  6  0  0  0
 20 21  1  0  0  0  0
 21 15  1  1  0  0  0
 21 22  1  0  0  0  0
 22  6  1  6  0  0  0
M  END
>  <CHROM.1>
86.71282384,65.83506195,160.21076331,29.42822711,0.06674347,6.98558591,0.19027702
0.80961649,-0.55850080

>  <Name>
2fcx_lig

>  <RI>
2.51704e+07

>  <Rbt.Current_Directory>
/home/itssahil/PROJECTS/Mol_Feturizer/New_Systems/rnas/2fcx

>  <Rbt.Executable>
rbdock ($Id: //depot/dev/client3/rdock/2013.1/src/exe/rbdock.cxx#4 $)

>  <Rbt.Library>
libRbt.so (2013.1, Build901 2013/11/27)

>  <Rbt.Parameter_File>
/export/apps/rDock/src/rDock_2013.1_src/data/scripts/dock_solv.prm

>  <Rbt.Receptor>
prm/blind_docking_80.prm

>  <SCORE>
-9.51944

>  <SCORE.INTER>
-9.48759

>  <SCORE.INTER.CONST>
1

>  <SCORE.INTER.POLAR>
-0.80606

>  <SCORE.INTER.ROT>
3

>  <SCORE.INTER.SOLV>
5.91429

>  <SCORE.INTER.VDW>
-11.2096

>  <SCORE.INTER.norm>
-0.431254

>  <SCORE.INTRA>
-0.0336659

>  <SCORE.INTRA.DIHEDRAL>
-0.42729

>  <SCORE.INTRA.DIHEDRAL.0>
4.88619

>  <SCORE.INTRA.POLAR>
0

>  <SCORE.INTRA.POLAR.0>
0

>  <SCORE.INTRA.REPUL>
0

>  <SCORE.INTRA.REPUL.0>
0

>  <SCORE.INTRA.SOLV>
1.1243

>  <SCORE.INTRA.SOLV.lig_0>
-73.8187

>  <SCORE.INTRA.VDW>
-0.382172

>  <SCORE.INTRA.VDW.0>
-1.32335

>  <SCORE.INTRA.norm>
-0.00153027

>  <SCORE.RESTR>
0.00181574

>  <SCORE.RESTR.CAVITY>
0.00181574

>  <SCORE.RESTR.norm>
8.25336e-05

>  <SCORE.SYSTEM>
0

>  <SCORE.SYSTEM.CONST>
0

>  <SCORE.SYSTEM.DIHEDRAL>
0

>  <SCORE.SYSTEM.SOLV>
0

>  <SCORE.SYSTEM.norm>
0

>  <SCORE.heavy>
22

>  <SCORE.norm>
-0.432702

>  <RMSD>
13.152

$$$$
2fcx_lig
 OpenBabel11021811433D
libRbt.so/2013.1/901 2013/11/27
 22 23  0  0  0  0  0  0  0  0999 V2000
   32.5302    0.0683    2.3399 N   0  0  0  0  0  0  0  0  0  0  0  0
   28.5294    1.2877    4.9053 N   0  0  0  0  0  0  0  0  0  0  0  0
   28.8984    3.3641    9.8982 N   0  0  0  0  0  0  0  0  0  0  0  0
   32.0160   -1.4134    6.9615 O   0  0  0  0  0  0  0  0  0  0  0  0
   31.3178   -1.1611    5.7390 C   0  0  2  0  0  0  0  0  0  0  0  0
   28.4205   -2.5305    8.8663 N   0  0  0  0  0  0  0  0  0  0  0  0
   33.2104   -1.8166    4.4173 O   0  0  0  0  0  0  0  0  0  0  0  0
   32.3060   -0.7308    4.6524 C   0  0  1  0  0  0  0  0  0  0  0  0
   29.2224   -0.6364    6.8637 O   0  0  0  0  0  0  0  0  0  0  0  0
   31.5697   -0.3882    3.3552 C   0  0  1  0  0  0  0  0  0  0  0  0
   29.4952    1.0222    8.4966 O   0  0  0  0  0  0  0  0  0  0  0  0
   30.5340    0.7146    3.5989 C   0  0  0  0  0  0  0  0  0  0  0  0
   25.8550    1.5872    8.8301 O   0  0  0  0  0  0  0  0  0  0  0  0
   29.5308    0.2416    4.6547 C   0  0  1  0  0  0  0  0  0  0  0  0
   26.1018   -1.0845    9.7420 O   0  0  0  0  0  0  0  0  0  0  0  0
   30.2229   -0.1134    5.9741 C   0  0  2  0  0  0  0  0  0  0  0  0
   29.5068   -0.3965    8.2527 C   0  0  1  0  0  0  0  0  0  0  0  0
   28.2179    1.6482    8.2611 C   0  0  2  0  0  0  0  0  0  0  0  0
   28.2879    3.1435    8.5788 C   0  0  0  0  0  0  0  0  0  0  0  0
   27.1318    1.0193    9.1382 C   0  0  2  0  0  0  0  0  0  0  0  0
   27.0712   -0.4869    8.8790 C   0  0  1  0  0  0  0  0  0  0  0  0
   28.4571   -1.0862    9.1326 C   0  0  1  0  0  0  0  0  0  0  0  0
  5  4  1  1  0  0  0
  5  8  1  0  0  0  0
  5 16  1  0  0  0  0
  8  7  1  6  0  0  0
  8 10  1  0  0  0  0
 10  1  1  6  0  0  0
 10 12  1  0  0  0  0
 11 18  1  0  0  0  0
 12 14  1  0  0  0  0
 14  2  1  1  0  0  0
 14 16  1  0  0  0  0
 16  9  1  1  0  0  0
 17  9  1  6  0  0  0
 17 11  1  0  0  0  0
 17 22  1  0  0  0  0
 18 19  1  1  0  0  0
 18 20  1  0  0  0  0
 19  3  1  0  0  0  0
 20 13  1  6  0  0  0
 20 21  1  0  0  0  0
 21 15  1  1  0  0  0
 21 22  1  0  0  0  0
 22  6  1  6  0  0  0
M  END
>  <CHROM.1>
88.91496254,64.09520313,-49.25769045,29.46628451,0.09150782,6.91622366,0.17820746
0.84437437,-0.49814647

>  <Name>
2fcx_lig

>  <RI>
2.51704e+07

>  <Rbt.Current_Directory>
/home/itssahil/PROJECTS/Mol_Feturizer/New_Systems/rnas/2fcx

>  <Rbt.Executable>
rbdock ($Id: //depot/dev/client3/rdock/2013.1/src/exe/rbdock.cxx#4 $)

>  <Rbt.Library>
libRbt.so (2013.1, Build901 2013/11/27)

>  <Rbt.Parameter_File>
/export/apps/rDock/src/rDock_2013.1_src/data/scripts/dock_solv.prm

>  <Rbt.Receptor>
prm/blind_docking_80.prm

>  <SCORE>
-12.3293

>  <SCORE.INTER>
-12.1646

>  <SCORE.INTER.CONST>
1

>  <SCORE.INTER.POLAR>
-1.82519

>  <SCORE.INTER.ROT>
3

>  <SCORE.INTER.SOLV>
10.4991

>  <SCORE.INTER.VDW>
-11.1254

>  <SCORE.INTER.norm>
-0.552935

>  <SCORE.INTRA>
-0.164767

>  <SCORE.INTRA.DIHEDRAL>
-0.999804

>  <SCORE.INTRA.DIHEDRAL.0>
4.88619

>  <SCORE.INTRA.POLAR>
0

>  <SCORE.INTRA.POLAR.0>
0

>  <SCORE.INTRA.REPUL>
0

>  <SCORE.INTRA.REPUL.0>
0

>  <SCORE.INTRA.SOLV>
1.54851

>  <SCORE.INTRA.SOLV.lig_0>
-73.8187

>  <SCORE.INTRA.VDW>
-0.43912

>  <SCORE.INTRA.VDW.0>
-1.32335

>  <SCORE.INTRA.norm>
-0.00748941

>  <SCORE.RESTR>
0

>  <SCORE.RESTR.CAVITY>
0

>  <SCORE.RESTR.norm>
0

>  <SCORE.SYSTEM>
0

>  <SCORE.SYSTEM.CONST>
0

>  <SCORE.SYSTEM.DIHEDRAL>
0

>  <SCORE.SYSTEM.SOLV>
0

>  <SCORE.SYSTEM.norm>
0

>  <SCORE.heavy>
22

>  <SCORE.norm>
-0.560424

>  <RMSD>
13.155

$$$$
2fcx_lig
 OpenBabel11021811433D
libRbt.so/2013.1/901 2013/11/27
 22 23  0  0  0  0  0  0  0  0999 V2000
   32.4717   -2.0999    2.3762 N   0  0  0  0  0  0  0  0  0  0  0  0
   31.0924   -1.4883    7.0450 N   0  0  0  0  0  0  0  0  0  0  0  0
   26.3305   -0.8368    7.3177 N   0  0  0  0  0  0  0  0  0  0  0  0
   29.7164    1.7201    3.6549 O   0  0  0  0  0  0  0  0  0  0  0  0
   30.7853    0.8676    4.0747 C   0  0  2  0  0  0  0  0  0  0  0  0
   30.6538    3.9768    6.8721 N   0  0  0  0  0  0  0  0  0  0  0  0
   31.5642    0.5836    1.8229 O   0  0  0  0  0  0  0  0  0  0  0  0
   31.1120   -0.1423    2.9721 C   0  0  1  0  0  0  0  0  0  0  0  0
   30.2957    1.1612    6.4423 O   0  0  0  0  0  0  0  0  0  0  0  0
   32.2064   -1.1093    3.4297 C   0  0  1  0  0  0  0  0  0  0  0  0
   27.9687    1.4046    6.5762 O   0  0  0  0  0  0  0  0  0  0  0  0
   31.7808   -1.8379    4.7089 C   0  0  0  0  0  0  0  0  0  0  0  0
   28.0051    1.7313   10.2604 O   0  0  0  0  0  0  0  0  0  0  0  0
   31.5054   -0.8089    5.8089 C   0  0  1  0  0  0  0  0  0  0  0  0
   29.4372    4.0453    9.4701 O   0  0  0  0  0  0  0  0  0  0  0  0
   30.4140    0.1829    5.3958 C   0  0  2  0  0  0  0  0  0  0  0  0
   29.2013    2.0747    6.2535 C   0  0  1  0  0  0  0  0  0  0  0  0
   27.8725    0.9821    7.9514 C   0  0  2  0  0  0  0  0  0  0  0  0
   26.5207    0.3142    8.2129 C   0  0  0  0  0  0  0  0  0  0  0  0
   28.0121    2.1756    8.9002 C   0  0  2  0  0  0  0  0  0  0  0  0
   29.3344    2.8950    8.6288 C   0  0  1  0  0  0  0  0  0  0  0  0
   29.3789    3.3033    7.1539 C   0  0  1  0  0  0  0  0  0  0  0  0
  5  4  1  6  0  0  0
  5  8  1  0  0  0  0
  5 16  1  0  0  0  0
  8  7  1  6  0  0  0
  8 10  1  0  0  0  0
 10  1  1  6  0  0  0
 10 12  1  0  0  0  0
 11 18  1  0  0  0  0
 12 14  1  0  0  0  0
 14  2  1  1  0  0  0
 14 16  1  0  0  0  0
 16  9  1  1  0  0  0
 17  9  1  1  0  0  0
 17 11  1  0  0  0  0
 17 22  1  0  0  0  0
 18 19  1  6  0  0  0
 18 20  1  0  0  0  0
 19  3  1  0  0  0  0
 20 13  1  1  0  0  0
 20 21  1  0  0  0  0
 21 15  1  1  0  0  0
 21 22  1  0  0  0  0
 22  6  1  6  0  0  0
M  END
>  <CHROM.1>
66.05287389,75.73377665,57.92201281,29.78516906,0.89712753,6.16282050,0.69932779
-0.88111820,-2.79912823

>  <Name>
2fcx_lig

>  <RI>
2.51704e+07

>  <Rbt.Current_Directory>
/home/itssahil/PROJECTS/Mol_Feturizer/New_Systems/rnas/2fcx

>  <Rbt.Executable>
rbdock ($Id: //depot/dev/client3/rdock/2013.1/src/exe/rbdock.cxx#4 $)

>  <Rbt.Library>
libRbt.so (2013.1, Build901 2013/11/27)

>  <Rbt.Parameter_File>
/export/apps/rDock/src/rDock_2013.1_src/data/scripts/dock_solv.prm

>  <Rbt.Receptor>
prm/blind_docking_80.prm

>  <SCORE>
-10.2339

>  <SCORE.INTER>
-8.97952

>  <SCORE.INTER.CONST>
1

>  <SCORE.INTER.POLAR>
-0.737064

>  <SCORE.INTER.ROT>
3

>  <SCORE.INTER.SOLV>
15.927

>  <SCORE.INTER.VDW>
-14.4385

>  <SCORE.INTER.norm>
-0.40816

>  <SCORE.INTRA>
-1.37457

>  <SCORE.INTRA.DIHEDRAL>
-3.52785

>  <SCORE.INTRA.DIHEDRAL.0>
4.88619

>  <SCORE.INTRA.POLAR>
0

>  <SCORE.INTRA.POLAR.0>
0

>  <SCORE.INTRA.REPUL>
0

>  <SCORE.INTRA.REPUL.0>
0

>  <SCORE.INTRA.SOLV>
-0.719046

>  <SCORE.INTRA.SOLV.lig_0>
-73.8187

>  <SCORE.INTRA.VDW>
0.748876

>  <SCORE.INTRA.VDW.0>
-1.32335

>  <SCORE.INTRA.norm>
-0.0624806

>  <SCORE.RESTR>
0.120155

>  <SCORE.RESTR.CAVITY>
0.120155

>  <SCORE.RESTR.norm>
0.00546161

>  <SCORE.SYSTEM>
0

>  <SCORE.SYSTEM.CONST>
0

>  <SCORE.SYSTEM.DIHEDRAL>
0

>  <SCORE.SYSTEM.SOLV>
0

>  <SCORE.SYSTEM.norm>
0

>  <SCORE.heavy>
22

>  <SCORE.norm>
-0.465179

>  <RMSD>
13.159

$$$$
2fcx_lig
 OpenBabel11021811433D
libRbt.so/2013.1/901 2013/11/27
 22 23  0  0  0  0  0  0  0  0999 V2000
   30.6510   -1.5673   13.1970 N   0  0  0  0  0  0  0  0  0  0  0  0
   30.7211   -0.2068    8.4833 N   0  0  0  0  0  0  0  0  0  0  0  0
   28.9154    3.5033    7.2446 N   0  0  0  0  0  0  0  0  0  0  0  0
   26.4764   -0.8034   10.7869 O   0  0  0  0  0  0  0  0  0  0  0  0
   27.8093   -1.3083   10.6686 C   0  0  2  0  0  0  0  0  0  0  0  0
   25.6124   -2.0896    7.2611 N   0  0  0  0  0  0  0  0  0  0  0  0
   27.8199   -2.0696   12.9442 O   0  0  0  0  0  0  0  0  0  0  0  0
   28.5206   -1.2274   12.0213 C   0  0  1  0  0  0  0  0  0  0  0  0
   27.9579   -0.7953    8.2924 O   0  0  0  0  0  0  0  0  0  0  0  0
   29.9718   -1.6978   11.8995 C   0  0  1  0  0  0  0  0  0  0  0  0
   27.0940    1.3039    7.7106 O   0  0  0  0  0  0  0  0  0  0  0  0
   30.7218   -0.8657   10.8538 C   0  0  0  0  0  0  0  0  0  0  0  0
   27.8500    0.8521    4.1182 O   0  0  0  0  0  0  0  0  0  0  0  0
   30.0180   -1.0009    9.5007 C   0  0  1  0  0  0  0  0  0  0  0  0
   25.9305   -1.1861    4.5561 O   0  0  0  0  0  0  0  0  0  0  0  0
   28.5590   -0.5405    9.5730 C   0  0  2  0  0  0  0  0  0  0  0  0
   26.7504   -0.0481    8.0659 C   0  0  1  0  0  0  0  0  0  0  0  0
   27.8414    1.4167    6.4828 C   0  0  2  0  0  0  0  0  0  0  0  0
   28.1308    2.8854    6.1652 C   0  0  0  0  0  0  0  0  0  0  0  0
   27.0608    0.8148    5.3112 C   0  0  2  0  0  0  0  0  0  0  0  0
   26.7129   -0.6421    5.6208 C   0  0  1  0  0  0  0  0  0  0  0  0
   25.9351   -0.6932    6.9385 C   0  0  1  0  0  0  0  0  0  0  0  0
  5  4  1  1  0  0  0
  5  8  1  0  0  0  0
  5 16  1  0  0  0  0
  8  7  1  1  0  0  0
  8 10  1  0  0  0  0
 10  1  1  1  0  0  0
 10 12  1  0  0  0  0
 11 18  1  0  0  0  0
 12 14  1  0  0  0  0
 14  2  1  6  0  0  0
 14 16  1  0  0  0  0
 16  9  1  6  0  0  0
 17  9  1  6  0  0  0
 17 11  1  0  0  0  0
 17 22  1  0  0  0  0
 18 19  1  6  0  0  0
 18 20  1  0  0  0  0
 19  3  1  0  0  0  0
 20 13  1  6  0  0  0
 20 21  1  0  0  0  0
 21 15  1  6  0  0  0
 21 22  1  0  0  0  0
 22  6  1  1  0  0  0
M  END
>  <CHROM.1>
78.27590530,78.22463620,59.98677579,28.01937453,-0.27083587,8.51131584,-1.18009773
-0.62680880,-1.01707200

>  <Name>
2fcx_lig

>  <RI>
224

>  <Rbt.Current_Directory>
/home/itssahil/PROJECTS/Mol_Feturizer/New_Systems/rnas/2fcx

>  <Rbt.Executable>
rbdock ($Id: //depot/dev/client3/rdock/2013.1/src/exe/rbdock.cxx#4 $)

>  <Rbt.Library>
libRbt.so (2013.1, Build901 2013/11/27)

>  <Rbt.Parameter_File>
/export/apps/rDock/src/rDock_2013.1_src/data/scripts/dock_solv.prm

>  <Rbt.Receptor>
prm/blind_docking_60.prm

>  <SCORE>
-7.40945

>  <SCORE.INTER>
-6.32788

>  <SCORE.INTER.CONST>
1

>  <SCORE.INTER.POLAR>
0

>  <SCORE.INTER.ROT>
3

>  <SCORE.INTER.SOLV>
18.5032

>  <SCORE.INTER.VDW>
-15.9863

>  <SCORE.INTER.norm>
-0.287631

>  <SCORE.INTRA>
-1.08157

>  <SCORE.INTRA.DIHEDRAL>
-1.83361

>  <SCORE.INTRA.DIHEDRAL.0>
4.88619

>  <SCORE.INTRA.POLAR>
0

>  <SCORE.INTRA.POLAR.0>
0

>  <SCORE.INTRA.REPUL>
0

>  <SCORE.INTRA.REPUL.0>
0

>  <SCORE.INTRA.SOLV>
-0.0692257

>  <SCORE.INTRA.SOLV.lig_0>
-73.8187

>  <SCORE.INTRA.VDW>
-0.13015

>  <SCORE.INTRA.VDW.0>
-1.32335

>  <SCORE.INTRA.norm>
-0.0491622

>  <SCORE.RESTR>
0

>  <SCORE.RESTR.CAVITY>
0

>  <SCORE.RESTR.norm>
0

>  <SCORE.SYSTEM>
0

>  <SCORE.SYSTEM.CONST>
0

>  <SCORE.SYSTEM.DIHEDRAL>
0

>  <SCORE.SYSTEM.SOLV>
0

>  <SCORE.SYSTEM.norm>
0

>  <SCORE.heavy>
22

>  <SCORE.norm>
-0.336793

>  <RMSD>
13.164

$$$$
2fcx_lig
 OpenBabel11021811433D
libRbt.so/2013.1/901 2013/11/27
 22 23  0  0  0  0  0  0  0  0999 V2000
   32.6024   -1.4678    2.7033 N   0  0  0  0  0  0  0  0  0  0  0  0
   30.5802    1.9687    5.5626 N   0  0  0  0  0  0  0  0  0  0  0  0
   24.9626    1.8896    7.9334 N   0  0  0  0  0  0  0  0  0  0  0  0
   31.0565   -2.5910    7.1941 O   0  0  0  0  0  0  0  0  0  0  0  0
   30.7794   -1.8001    6.0352 C   0  0  2  0  0  0  0  0  0  0  0  0
   30.8921   -0.0682    9.8906 N   0  0  0  0  0  0  0  0  0  0  0  0
   31.6832   -3.4701    4.5680 O   0  0  0  0  0  0  0  0  0  0  0  0
   31.8112   -2.0936    4.9435 C   0  0  1  0  0  0  0  0  0  0  0  0
   29.6455   -0.0584    7.3047 O   0  0  0  0  0  0  0  0  0  0  0  0
   31.5735   -1.2052    3.7202 C   0  0  1  0  0  0  0  0  0  0  0  0
   28.6820    2.0326    7.7422 O   0  0  0  0  0  0  0  0  0  0  0  0
   31.6210    0.2754    4.1125 C   0  0  0  0  0  0  0  0  0  0  0  0
   26.0882    0.6068    9.9604 O   0  0  0  0  0  0  0  0  0  0  0  0
   30.5491    0.5527    5.1703 C   0  0  1  0  0  0  0  0  0  0  0  0
   28.4554    0.0207   11.4036 O   0  0  0  0  0  0  0  0  0  0  0  0
   30.7463   -0.3151    6.4168 C   0  0  2  0  0  0  0  0  0  0  0  0
   29.7845    1.1610    8.0542 C   0  0  1  0  0  0  0  0  0  0  0  0
   27.3930    1.5062    8.1169 C   0  0  2  0  0  0  0  0  0  0  0  0
   26.2873    2.5100    7.7828 C   0  0  0  0  0  0  0  0  0  0  0  0
   27.3391    1.2116    9.6184 C   0  0  2  0  0  0  0  0  0  0  0  0
   28.4658    0.2472    9.9929 C   0  0  1  0  0  0  0  0  0  0  0  0
   29.8008    0.8571    9.5572 C   0  0  1  0  0  0  0  0  0  0  0  0
  5  4  1  1  0  0  0
  5  8  1  0  0  0  0
  5 16  1  0  0  0  0
  8  7  1  6  0  0  0
  8 10  1  0  0  0  0
 10  1  1  6  0  0  0
 10 12  1  0  0  0  0
 11 18  1  0  0  0  0
 12 14  1  0  0  0  0
 14  2  1  1  0  0  0
 14 16  1  0  0  0  0
 16  9  1  1  0  0  0
 17  9  1  6  0  0  0
 17 11  1  0  0  0  0
 17 22  1  0  0  0  0
 18 19  1  1  0  0  0
 18 20  1  0  0  0  0
 19  3  1  0  0  0  0
 20 13  1  6  0  0  0
 20 21  1  0  0  0  0
 21 15  1  1  0  0  0
 21 22  1  0  0  0  0
 22  6  1  6  0  0  0
M  END
>  <CHROM.1>
160.48241196,119.78001028,169.73675038,29.56189844,0.05748281,7.20515243
0.54409267,0.75755531,-1.22934253

>  <Name>
2fcx_lig

>  <RI>
2.51704e+07

>  <Rbt.Current_Directory>
/home/itssahil/PROJECTS/Mol_Feturizer/New_Systems/rnas/2fcx

>  <Rbt.Executable>
rbdock ($Id: //depot/dev/client3/rdock/2013.1/src/exe/rbdock.cxx#4 $)

>  <Rbt.Library>
libRbt.so (2013.1, Build901 2013/11/27)

>  <Rbt.Parameter_File>
/export/apps/rDock/src/rDock_2013.1_src/data/scripts/dock_solv.prm

>  <Rbt.Receptor>
prm/blind_docking_80.prm

>  <SCORE>
-12.5027

>  <SCORE.INTER>
-16.4318

>  <SCORE.INTER.CONST>
1

>  <SCORE.INTER.POLAR>
-2.26073

>  <SCORE.INTER.ROT>
3

>  <SCORE.INTER.SOLV>
14.3315

>  <SCORE.INTER.VDW>
-13.796

>  <SCORE.INTER.norm>
-0.746902

>  <SCORE.INTRA>
3.92911

>  <SCORE.INTRA.DIHEDRAL>
4.41748

>  <SCORE.INTRA.DIHEDRAL.0>
4.88619

>  <SCORE.INTRA.POLAR>
0

>  <SCORE.INTRA.POLAR.0>
0

>  <SCORE.INTRA.REPUL>
0

>  <SCORE.INTRA.REPUL.0>
0

>  <SCORE.INTRA.SOLV>
2.56307

>  <SCORE.INTRA.SOLV.lig_0>
-73.8187

>  <SCORE.INTRA.VDW>
0.438834

>  <SCORE.INTRA.VDW.0>
-1.32335

>  <SCORE.INTRA.norm>
0.178596

>  <SCORE.RESTR>
0

>  <SCORE.RESTR.CAVITY>
0

>  <SCORE.RESTR.norm>
0

>  <SCORE.SYSTEM>
0

>  <SCORE.SYSTEM.CONST>
0

>  <SCORE.SYSTEM.DIHEDRAL>
0

>  <SCORE.SYSTEM.SOLV>
0

>  <SCORE.SYSTEM.norm>
0

>  <SCORE.heavy>
22

>  <SCORE.norm>
-0.568306

>  <RMSD>
13.175

$$$$
2fcx_lig
 OpenBabel11021811433D
libRbt.so/2013.1/901 2013/11/27
 22 23  0  0  0  0  0  0  0  0999 V2000
   33.5330   -1.5657    3.5020 N   0  0  0  0  0  0  0  0  0  0  0  0
   30.6711   -2.8888    7.2615 N   0  0  0  0  0  0  0  0  0  0  0  0
   30.3914   -1.1044   11.5347 N   0  0  0  0  0  0  0  0  0  0  0  0
   29.6034    1.0852    4.6639 O   0  0  0  0  0  0  0  0  0  0  0  0
   30.6775    0.3064    5.1981 C   0  0  2  0  0  0  0  0  0  0  0  0
   26.7260   -0.5593    6.2168 N   0  0  0  0  0  0  0  0  0  0  0  0
   32.1586    0.9715    3.4311 O   0  0  0  0  0  0  0  0  0  0  0  0
   31.5852   -0.1780    4.0651 C   0  0  1  0  0  0  0  0  0  0  0  0
   29.4222   -0.3489    7.1795 O   0  0  0  0  0  0  0  0  0  0  0  0
   32.7015   -1.0722    4.6097 C   0  0  1  0  0  0  0  0  0  0  0  0
   28.8385   -1.4696    9.1531 O   0  0  0  0  0  0  0  0  0  0  0  0
   32.1131   -2.2672    5.3674 C   0  0  0  0  0  0  0  0  0  0  0  0
   27.1608    1.4976   10.5893 O   0  0  0  0  0  0  0  0  0  0  0  0
   31.2479   -1.7566    6.5230 C   0  0  1  0  0  0  0  0  0  0  0  0
   25.5258    0.9530    8.3398 O   0  0  0  0  0  0  0  0  0  0  0  0
   30.1139   -0.8552    6.0257 C   0  0  2  0  0  0  0  0  0  0  0  0
   28.5093   -1.2945    7.7627 C   0  0  1  0  0  0  0  0  0  0  0  0
   28.6971   -0.2732    9.9453 C   0  0  2  0  0  0  0  0  0  0  0  0
   29.0313   -0.5591   11.4110 C   0  0  0  0  0  0  0  0  0  0  0  0
   27.2648    0.2631    9.8732 C   0  0  2  0  0  0  0  0  0  0  0  0
   26.8830    0.5123    8.4132 C   0  0  1  0  0  0  0  0  0  0  0  0
   27.0680   -0.7883    7.6271 C   0  0  1  0  0  0  0  0  0  0  0  0
  5  4  1  6  0  0  0
  5  8  1  0  0  0  0
  5 16  1  0  0  0  0
  8  7  1  1  0  0  0
  8 10  1  0  0  0  0
 10  1  1  6  0  0  0
 10 12  1  0  0  0  0
 11 18  1  0  0  0  0
 12 14  1  0  0  0  0
 14  2  1  6  0  0  0
 14 16  1  0  0  0  0
 16  9  1  1  0  0  0
 17  9  1  1  0  0  0
 17 11  1  0  0  0  0
 17 22  1  0  0  0  0
 18 19  1  1  0  0  0
 18 20  1  0  0  0  0
 19  3  1  0  0  0  0
 20 13  1  1  0  0  0
 20 21  1  0  0  0  0
 21 15  1  1  0  0  0
 21 22  1  0  0  0  0
 22  6  1  6  0  0  0
M  END
>  <CHROM.1>
160.79921648,124.59548645,57.17649575,29.51506431,-0.48084005,7.22062559
-0.77971025,-0.47206321,1.85922545

>  <Name>
2fcx_lig

>  <RI>
2.51704e+07

>  <Rbt.Current_Directory>
/home/itssahil/PROJECTS/Mol_Feturizer/New_Systems/rnas/2fcx

>  <Rbt.Executable>
rbdock ($Id: //depot/dev/client3/rdock/2013.1/src/exe/rbdock.cxx#4 $)

>  <Rbt.Library>
libRbt.so (2013.1, Build901 2013/11/27)

>  <Rbt.Parameter_File>
/export/apps/rDock/src/rDock_2013.1_src/data/scripts/dock_solv.prm

>  <Rbt.Receptor>
prm/blind_docking_80.prm

>  <SCORE>
-10.0433

>  <SCORE.INTER>
-12.9031

>  <SCORE.INTER.CONST>
1

>  <SCORE.INTER.POLAR>
-1.18741

>  <SCORE.INTER.ROT>
3

>  <SCORE.INTER.SOLV>
9.60929

>  <SCORE.INTER.VDW>
-13.4471

>  <SCORE.INTER.norm>
-0.586505

>  <SCORE.INTRA>
2.85985

>  <SCORE.INTRA.DIHEDRAL>
3.91715

>  <SCORE.INTRA.DIHEDRAL.0>
4.88619

>  <SCORE.INTRA.POLAR>
0

>  <SCORE.INTRA.POLAR.0>
0

>  <SCORE.INTRA.REPUL>
0

>  <SCORE.INTRA.REPUL.0>
0

>  <SCORE.INTRA.SOLV>
1.41461

>  <SCORE.INTRA.SOLV.lig_0>
-73.8187

>  <SCORE.INTRA.VDW>
0.193971

>  <SCORE.INTRA.VDW.0>
-1.32335

>  <SCORE.INTRA.norm>
0.129993

>  <SCORE.RESTR>
0

>  <SCORE.RESTR.CAVITY>
0

>  <SCORE.RESTR.norm>
0

>  <SCORE.SYSTEM>
0

>  <SCORE.SYSTEM.CONST>
0

>  <SCORE.SYSTEM.DIHEDRAL>
0

>  <SCORE.SYSTEM.SOLV>
0

>  <SCORE.SYSTEM.norm>
0

>  <SCORE.heavy>
22

>  <SCORE.norm>
-0.456512

>  <RMSD>
13.177

$$$$
2fcx_lig
 OpenBabel11021811433D
libRbt.so/2013.1/901 2013/11/27
 22 23  0  0  0  0  0  0  0  0999 V2000
   33.3996   -1.4672    3.4747 N   0  0  0  0  0  0  0  0  0  0  0  0
   29.3340    0.7599    5.0825 N   0  0  0  0  0  0  0  0  0  0  0  0
   28.8301    3.5313    9.9243 N   0  0  0  0  0  0  0  0  0  0  0  0
   32.0456   -1.8752    8.1458 O   0  0  0  0  0  0  0  0  0  0  0  0
   31.5656   -1.7963    6.8008 C   0  0  2  0  0  0  0  0  0  0  0  0
   28.5202   -2.4583    9.5932 N   0  0  0  0  0  0  0  0  0  0  0  0
   33.4909   -2.9487    5.9502 O   0  0  0  0  0  0  0  0  0  0  0  0
   32.7454   -1.7315    5.8281 C   0  0  1  0  0  0  0  0  0  0  0  0
   29.4475   -0.7861    7.4520 O   0  0  0  0  0  0  0  0  0  0  0  0
   32.2523   -1.5758    4.3876 C   0  0  1  0  0  0  0  0  0  0  0  0
   29.5393    1.0606    8.8918 O   0  0  0  0  0  0  0  0  0  0  0  0
   31.3799   -0.3236    4.2495 C   0  0  0  0  0  0  0  0  0  0  0  0
   25.8717    1.5384    8.8521 O   0  0  0  0  0  0  0  0  0  0  0  0
   30.1828   -0.4344    5.1978 C   0  0  1  0  0  0  0  0  0  0  0  0
   26.1013   -0.9982   10.0942 O   0  0  0  0  0  0  0  0  0  0  0  0
   30.6277   -0.5918    6.6549 C   0  0  2  0  0  0  0  0  0  0  0  0
   29.6052   -0.3757    8.8212 C   0  0  1  0  0  0  0  0  0  0  0  0
   28.2727    1.6115    8.4780 C   0  0  2  0  0  0  0  0  0  0  0  0
   28.2799    3.1353    8.6194 C   0  0  0  0  0  0  0  0  0  0  0  0
   27.1300    1.0537    9.3308 C   0  0  2  0  0  0  0  0  0  0  0  0
   27.1274   -0.4737    9.2494 C   0  0  1  0  0  0  0  0  0  0  0  0
   28.4998   -0.9924    9.6870 C   0  0  1  0  0  0  0  0  0  0  0  0
  5  4  1  1  0  0  0
  5  8  1  0  0  0  0
  5 16  1  0  0  0  0
  8  7  1  6  0  0  0
  8 10  1  0  0  0  0
 10  1  1  6  0  0  0
 10 12  1  0  0  0  0
 11 18  1  0  0  0  0
 12 14  1  0  0  0  0
 14  2  1  1  0  0  0
 14 16  1  0  0  0  0
 16  9  1  1  0  0  0
 17  9  1  6  0  0  0
 17 11  1  0  0  0  0
 17 22  1  0  0  0  0
 18 19  1  1  0  0  0
 18 20  1  0  0  0  0
 19  3  1  0  0  0  0
 20 13  1  6  0  0  0
 20 21  1  0  0  0  0
 21 15  1  1  0  0  0
 21 22  1  0  0  0  0
 22  6  1  6  0  0  0
M  END
>  <CHROM.1>
85.29509537,76.62615430,-46.50773367,29.72417513,-0.28577624,7.51923670,-0.00022563
0.77645759,-0.54970893

>  <Name>
2fcx_lig

>  <RI>
2.51704e+07

>  <Rbt.Current_Directory>
/home/itssahil/PROJECTS/Mol_Feturizer/New_Systems/rnas/2fcx

>  <Rbt.Executable>
rbdock ($Id: //depot/dev/client3/rdock/2013.1/src/exe/rbdock.cxx#4 $)

>  <Rbt.Library>
libRbt.so (2013.1, Build901 2013/11/27)

>  <Rbt.Parameter_File>
/export/apps/rDock/src/rDock_2013.1_src/data/scripts/dock_solv.prm

>  <Rbt.Receptor>
prm/blind_docking_80.prm

>  <SCORE>
-10.8918

>  <SCORE.INTER>
-11.1337

>  <SCORE.INTER.CONST>
1

>  <SCORE.INTER.POLAR>
-1.72936

>  <SCORE.INTER.ROT>
3

>  <SCORE.INTER.SOLV>
10.1351

>  <SCORE.INTER.VDW>
-10.6363

>  <SCORE.INTER.norm>
-0.506076

>  <SCORE.INTRA>
0.241387

>  <SCORE.INTRA.DIHEDRAL>
-0.252673

>  <SCORE.INTRA.DIHEDRAL.0>
4.88619

>  <SCORE.INTRA.POLAR>
0

>  <SCORE.INTRA.POLAR.0>
0

>  <SCORE.INTRA.REPUL>
0

>  <SCORE.INTRA.REPUL.0>
0

>  <SCORE.INTRA.SOLV>
1.47667

>  <SCORE.INTRA.SOLV.lig_0>
-73.8187

>  <SCORE.INTRA.VDW>
-0.37061

>  <SCORE.INTRA.VDW.0>
-1.32335

>  <SCORE.INTRA.norm>
0.0109721

>  <SCORE.RESTR>
0.000511614

>  <SCORE.RESTR.CAVITY>
0.000511614

>  <SCORE.RESTR.norm>
2.32552e-05

>  <SCORE.SYSTEM>
0

>  <SCORE.SYSTEM.CONST>
0

>  <SCORE.SYSTEM.DIHEDRAL>
0

>  <SCORE.SYSTEM.SOLV>
0

>  <SCORE.SYSTEM.norm>
0

>  <SCORE.heavy>
22

>  <SCORE.norm>
-0.495081

>  <RMSD>
13.214

$$$$
2fcx_lig
 OpenBabel11021811433D
libRbt.so/2013.1/901 2013/11/27
 22 23  0  0  0  0  0  0  0  0999 V2000
   26.8002   -3.0844   10.7834 N   0  0  0  0  0  0  0  0  0  0  0  0
   25.9573   -1.0492    6.3991 N   0  0  0  0  0  0  0  0  0  0  0  0
   30.7937    1.5845    4.5114 N   0  0  0  0  0  0  0  0  0  0  0  0
   28.3738    1.4331    9.8165 O   0  0  0  0  0  0  0  0  0  0  0  0
   27.3098    0.5029    9.5974 C   0  0  2  0  0  0  0  0  0  0  0  0
   26.1162    4.2691    7.1440 N   0  0  0  0  0  0  0  0  0  0  0  0
   27.6135   -0.4927   11.7595 O   0  0  0  0  0  0  0  0  0  0  0  0
   27.5855   -0.7953   10.3596 C   0  0  1  0  0  0  0  0  0  0  0  0
   26.6957    1.4743    7.4502 O   0  0  0  0  0  0  0  0  0  0  0  0
   26.4925   -1.8298   10.0814 C   0  0  1  0  0  0  0  0  0  0  0  0
   28.8157    1.7773    6.4986 O   0  0  0  0  0  0  0  0  0  0  0  0
   26.3846   -2.1083    8.5784 C   0  0  0  0  0  0  0  0  0  0  0  0
   27.4687    2.0220    3.0624 O   0  0  0  0  0  0  0  0  0  0  0  0
   26.0622   -0.8037    7.8444 C   0  0  1  0  0  0  0  0  0  0  0  0
   26.3330    4.3134    4.2830 O   0  0  0  0  0  0  0  0  0  0  0  0
   27.1311    0.2646    8.0930 C   0  0  2  0  0  0  0  0  0  0  0  0
   27.7554    2.4208    7.2293 C   0  0  1  0  0  0  0  0  0  0  0  0
   28.4335    1.3274    5.1831 C   0  0  2  0  0  0  0  0  0  0  0  0
   29.6268    0.6906    4.4674 C   0  0  0  0  0  0  0  0  0  0  0  0
   27.9283    2.4957    4.3321 C   0  0  2  0  0  0  0  0  0  0  0  0
   26.7644    3.1850    5.0460 C   0  0  1  0  0  0  0  0  0  0  0  0
   27.2306    3.6242    6.4366 C   0  0  1  0  0  0  0  0  0  0  0  0
  5  4  1  6  0  0  0
  5  8  1  0  0  0  0
  5 16  1  0  0  0  0
  8  7  1  1  0  0  0
  8 10  1  0  0  0  0
 10  1  1  1  0  0  0
 10 12  1  0  0  0  0
 11 18  1  0  0  0  0
 12 14  1  0  0  0  0
 14  2  1  6  0  0  0
 14 16  1  0  0  0  0
 16  9  1  6  0  0  0
 17  9  1  6  0  0  0
 17 11  1  0  0  0  0
 17 22  1  0  0  0  0
 18 19  1  6  0  0  0
 18 20  1  0  0  0  0
 19  3  1  0  0  0  0
 20 13  1  6  0  0  0
 20 21  1  0  0  0  0
 21 15  1  6  0  0  0
 21 22  1  0  0  0  0
 22  6  1  1  0  0  0
M  END
>  <CHROM.1>
78.30577584,54.53574997,-51.12540747,27.44942188,0.99246349,7.21590764,-1.90011978
1.20454859,-0.63443940

>  <Name>
2fcx_lig

>  <RI>
224

>  <Rbt.Current_Directory>
/home/itssahil/PROJECTS/Mol_Feturizer/New_Systems/rnas/2fcx

>  <Rbt.Executable>
rbdock ($Id: //depot/dev/client3/rdock/2013.1/src/exe/rbdock.cxx#4 $)

>  <Rbt.Library>
libRbt.so (2013.1, Build901 2013/11/27)

>  <Rbt.Parameter_File>
/export/apps/rDock/src/rDock_2013.1_src/data/scripts/dock_solv.prm

>  <Rbt.Receptor>
prm/blind_docking_60.prm

>  <SCORE>
-11.6905

>  <SCORE.INTER>
-10.7322

>  <SCORE.INTER.CONST>
1

>  <SCORE.INTER.POLAR>
-1.09914

>  <SCORE.INTER.ROT>
3

>  <SCORE.INTER.SOLV>
12.4463

>  <SCORE.INTER.VDW>
-13.2398

>  <SCORE.INTER.norm>
-0.487829

>  <SCORE.INTRA>
-0.958249

>  <SCORE.INTRA.DIHEDRAL>
-2.92595

>  <SCORE.INTRA.DIHEDRAL.0>
4.88619

>  <SCORE.INTRA.POLAR>
0

>  <SCORE.INTRA.POLAR.0>
0

>  <SCORE.INTRA.REPUL>
0

>  <SCORE.INTRA.REPUL.0>
0

>  <SCORE.INTRA.SOLV>
0.884884

>  <SCORE.INTRA.SOLV.lig_0>
-73.8187

>  <SCORE.INTRA.VDW>
0.0622842

>  <SCORE.INTRA.VDW.0>
-1.32335

>  <SCORE.INTRA.norm>
-0.0435568

>  <SCORE.RESTR>
0

>  <SCORE.RESTR.CAVITY>
0

>  <SCORE.RESTR.norm>
0

>  <SCORE.SYSTEM>
0

>  <SCORE.SYSTEM.CONST>
0

>  <SCORE.SYSTEM.DIHEDRAL>
0

>  <SCORE.SYSTEM.SOLV>
0

>  <SCORE.SYSTEM.norm>
0

>  <SCORE.heavy>
22

>  <SCORE.norm>
-0.531386

>  <RMSD>
13.241

$$$$
2fcx_lig
 OpenBabel11021811433D
libRbt.so/2013.1/901 2013/11/27
 22 23  0  0  0  0  0  0  0  0999 V2000
   33.0145   -1.4505    4.9415 N   0  0  0  0  0  0  0  0  0  0  0  0
   29.6113    2.0682    4.6064 N   0  0  0  0  0  0  0  0  0  0  0  0
   28.3947    2.8132    9.5977 N   0  0  0  0  0  0  0  0  0  0  0  0
   28.8472   -1.8004    7.4576 O   0  0  0  0  0  0  0  0  0  0  0  0
   29.4242   -1.3702    6.2217 C   0  0  2  0  0  0  0  0  0  0  0  0
   25.2092   -0.9515    5.4740 N   0  0  0  0  0  0  0  0  0  0  0  0
   31.0717   -3.1139    6.2794 O   0  0  0  0  0  0  0  0  0  0  0  0
   30.9205   -1.6914    6.2039 C   0  0  1  0  0  0  0  0  0  0  0  0
   27.7394    0.3498    5.8555 O   0  0  0  0  0  0  0  0  0  0  0  0
   31.5704   -1.1753    4.9181 C   0  0  1  0  0  0  0  0  0  0  0  0
   27.1975    0.8186    8.0868 O   0  0  0  0  0  0  0  0  0  0  0  0
   31.3487    0.3339    4.7709 C   0  0  0  0  0  0  0  0  0  0  0  0
   24.9185    3.5843    7.1710 O   0  0  0  0  0  0  0  0  0  0  0  0
   29.8454    0.6238    4.7442 C   0  0  1  0  0  0  0  0  0  0  0  0
   23.5940    1.3544    6.0294 O   0  0  0  0  0  0  0  0  0  0  0  0
   29.1500    0.1243    6.0141 C   0  0  2  0  0  0  0  0  0  0  0  0
   26.9589   -0.0771    6.9853 C   0  0  1  0  0  0  0  0  0  0  0  0
   26.7860    2.1779    7.8380 C   0  0  2  0  0  0  0  0  0  0  0  0
   27.0425    3.0488    9.0699 C   0  0  0  0  0  0  0  0  0  0  0  0
   25.2934    2.2439    7.5032 C   0  0  2  0  0  0  0  0  0  0  0  0
   24.9963    1.3427    6.3036 C   0  0  1  0  0  0  0  0  0  0  0  0
   25.4680   -0.0777    6.6262 C   0  0  1  0  0  0  0  0  0  0  0  0
  5  4  1  1  0  0  0
  5  8  1  0  0  0  0
  5 16  1  0  0  0  0
  8  7  1  6  0  0  0
  8 10  1  0  0  0  0
 10  1  1  1  0  0  0
 10 12  1  0  0  0  0
 11 18  1  0  0  0  0
 12 14  1  0  0  0  0
 14  2  1  1  0  0  0
 14 16  1  0  0  0  0
 16  9  1  6  0  0  0
 17  9  1  6  0  0  0
 17 11  1  0  0  0  0
 17 22  1  0  0  0  0
 18 19  1  1  0  0  0
 18 20  1  0  0  0  0
 19  3  1  0  0  0  0
 20 13  1  6  0  0  0
 20 21  1  0  0  0  0
 21 15  1  1  0  0  0
 21 22  1  0  0  0  0
 22  6  1  6  0  0  0
M  END
>  <CHROM.1>
59.59668048,71.16011842,46.96857415,28.07753925,0.41535503,6.50374646,-0.56639401
-0.00625224,0.50548343

>  <Name>
2fcx_lig

>  <RI>
2.63278e+07

>  <Rbt.Current_Directory>
/home/itssahil/PROJECTS/Mol_Feturizer/New_Systems/rnas/2fcx

>  <Rbt.Executable>
rbdock ($Id: //depot/dev/client3/rdock/2013.1/src/exe/rbdock.cxx#4 $)

>  <Rbt.Library>
libRbt.so (2013.1, Build901 2013/11/27)

>  <Rbt.Parameter_File>
/export/apps/rDock/src/rDock_2013.1_src/data/scripts/dock_solv.prm

>  <Rbt.Receptor>
prm/blind_docking_40.prm

>  <SCORE>
-10.2071

>  <SCORE.INTER>
-9.42751

>  <SCORE.INTER.CONST>
1

>  <SCORE.INTER.POLAR>
-0.892512

>  <SCORE.INTER.ROT>
3

>  <SCORE.INTER.SOLV>
17.4882

>  <SCORE.INTER.VDW>
-14.7394

>  <SCORE.INTER.norm>
-0.428523

>  <SCORE.INTRA>
-0.779582

>  <SCORE.INTRA.DIHEDRAL>
-3.68342

>  <SCORE.INTRA.DIHEDRAL.0>
4.88619

>  <SCORE.INTRA.POLAR>
0

>  <SCORE.INTRA.POLAR.0>
0

>  <SCORE.INTRA.REPUL>
0

>  <SCORE.INTRA.REPUL.0>
0

>  <SCORE.INTRA.SOLV>
-0.884462

>  <SCORE.INTRA.SOLV.lig_0>
-73.8187

>  <SCORE.INTRA.VDW>
1.50436

>  <SCORE.INTRA.VDW.0>
-1.32335

>  <SCORE.INTRA.norm>
-0.0354355

>  <SCORE.RESTR>
0

>  <SCORE.RESTR.CAVITY>
0

>  <SCORE.RESTR.norm>
0

>  <SCORE.SYSTEM>
0

>  <SCORE.SYSTEM.CONST>
0

>  <SCORE.SYSTEM.DIHEDRAL>
0

>  <SCORE.SYSTEM.SOLV>
0

>  <SCORE.SYSTEM.norm>
0

>  <SCORE.heavy>
22

>  <SCORE.norm>
-0.463959

>  <RMSD>
13.256

$$$$
2fcx_lig
 OpenBabel11021811433D
libRbt.so/2013.1/901 2013/11/27
 22 23  0  0  0  0  0  0  0  0999 V2000
   30.1647   -2.5099   12.4672 N   0  0  0  0  0  0  0  0  0  0  0  0
   32.3046   -1.7747    8.1134 N   0  0  0  0  0  0  0  0  0  0  0  0
   25.4805    0.7791    8.2112 N   0  0  0  0  0  0  0  0  0  0  0  0
   29.2693    1.5646    9.9343 O   0  0  0  0  0  0  0  0  0  0  0  0
   29.5120    0.1595    9.8245 C   0  0  2  0  0  0  0  0  0  0  0  0
   31.0633    0.2401    4.7933 N   0  0  0  0  0  0  0  0  0  0  0  0
   28.4117   -0.2855   11.9101 O   0  0  0  0  0  0  0  0  0  0  0  0
   29.6544   -0.4565   11.2183 C   0  0  1  0  0  0  0  0  0  0  0  0
   30.4988    0.3465    7.6059 O   0  0  0  0  0  0  0  0  0  0  0  0
   29.9847   -1.9477   11.1206 C   0  0  1  0  0  0  0  0  0  0  0  0
   28.6100   -1.0087    7.3101 O   0  0  0  0  0  0  0  0  0  0  0  0
   31.2674   -2.1633   10.3105 C   0  0  0  0  0  0  0  0  0  0  0  0
   26.5898    1.7531    5.9055 O   0  0  0  0  0  0  0  0  0  0  0  0
   31.0825   -1.5805    8.9066 C   0  0  1  0  0  0  0  0  0  0  0  0
   28.6170    1.4770    3.9447 O   0  0  0  0  0  0  0  0  0  0  0  0
   30.7500   -0.0862    8.9534 C   0  0  2  0  0  0  0  0  0  0  0  0
   29.9036   -0.6678    6.7784 C   0  0  1  0  0  0  0  0  0  0  0  0
   27.6668    0.0819    7.3046 C   0  0  2  0  0  0  0  0  0  0  0  0
   26.3134   -0.3781    7.8511 C   0  0  0  0  0  0  0  0  0  0  0  0
   27.4573    0.6153    5.8848 C   0  0  2  0  0  0  0  0  0  0  0  0
   28.8024    1.0379    5.2918 C   0  0  1  0  0  0  0  0  0  0  0  0
   29.7587   -0.1566    5.3399 C   0  0  1  0  0  0  0  0  0  0  0  0
  5  4  1  1  0  0  0
  5  8  1  0  0  0  0
  5 16  1  0  0  0  0
  8  7  1  1  0  0  0
  8 10  1  0  0  0  0
 10  1  1  1  0  0  0
 10 12  1  0  0  0  0
 11 18  1  0  0  0  0
 12 14  1  0  0  0  0
 14  2  1  6  0  0  0
 14 16  1  0  0  0  0
 16  9  1  6  0  0  0
 17  9  1  1  0  0  0
 17 11  1  0  0  0  0
 17 22  1  0  0  0  0
 18 19  1  6  0  0  0
 18 20  1  0  0  0  0
 19  3  1  0  0  0  0
 20 13  1  1  0  0  0
 20 21  1  0  0  0  0
 21 15  1  6  0  0  0
 21 22  1  0  0  0  0
 22  6  1  1  0  0  0
M  END
>  <CHROM.1>
-87.91029443,63.18611763,163.69974735,29.20562439,-0.18983423,8.12376794
1.22889386,-0.36695591,1.81831271

>  <Name>
2fcx_lig

>  <RI>
224

>  <Rbt.Current_Directory>
/home/itssahil/PROJECTS/Mol_Feturizer/New_Systems/rnas/2fcx

>  <Rbt.Executable>
rbdock ($Id: //depot/dev/client3/rdock/2013.1/src/exe/rbdock.cxx#4 $)

>  <Rbt.Library>
libRbt.so (2013.1, Build901 2013/11/27)

>  <Rbt.Parameter_File>
/export/apps/rDock/src/rDock_2013.1_src/data/scripts/dock_solv.prm

>  <Rbt.Receptor>
prm/blind_docking_100.prm

>  <SCORE>
-13.9128

>  <SCORE.INTER>
-17.665

>  <SCORE.INTER.CONST>
1

>  <SCORE.INTER.POLAR>
-2.83251

>  <SCORE.INTER.ROT>
3

>  <SCORE.INTER.SOLV>
11.6808

>  <SCORE.INTER.VDW>
-11.8285

>  <SCORE.INTER.norm>
-0.802953

>  <SCORE.INTRA>
3.75076

>  <SCORE.INTRA.DIHEDRAL>
-0.710968

>  <SCORE.INTRA.DIHEDRAL.0>
4.88619

>  <SCORE.INTRA.POLAR>
0

>  <SCORE.INTRA.POLAR.0>
0

>  <SCORE.INTRA.REPUL>
0

>  <SCORE.INTRA.REPUL.0>
0

>  <SCORE.INTRA.SOLV>
1.81043

>  <SCORE.INTRA.SOLV.lig_0>
-73.8187

>  <SCORE.INTRA.VDW>
3.20103

>  <SCORE.INTRA.VDW.0>
-1.32335

>  <SCORE.INTRA.norm>
0.170489

>  <SCORE.RESTR>
0.00138352

>  <SCORE.RESTR.CAVITY>
0.00138352

>  <SCORE.RESTR.norm>
6.28874e-05

>  <SCORE.SYSTEM>
0

>  <SCORE.SYSTEM.CONST>
0

>  <SCORE.SYSTEM.DIHEDRAL>
0

>  <SCORE.SYSTEM.SOLV>
0

>  <SCORE.SYSTEM.norm>
0

>  <SCORE.heavy>
22

>  <SCORE.norm>
-0.632401

>  <RMSD>
13.258

$$$$
2fcx_lig
 OpenBabel11021811433D
libRbt.so/2013.1/901 2013/11/27
 22 23  0  0  0  0  0  0  0  0999 V2000
   30.0650   -2.4274   11.5761 N   0  0  0  0  0  0  0  0  0  0  0  0
   30.3646   -1.3001    6.8101 N   0  0  0  0  0  0  0  0  0  0  0  0
   32.0830   -0.1975    4.4214 N   0  0  0  0  0  0  0  0  0  0  0  0
   28.7262    1.9923    9.9970 O   0  0  0  0  0  0  0  0  0  0  0  0
   28.7362    0.5987    9.6754 C   0  0  2  0  0  0  0  0  0  0  0  0
   27.3104    3.4424    6.9343 N   0  0  0  0  0  0  0  0  0  0  0  0
   28.5132   -0.0276   11.9811 O   0  0  0  0  0  0  0  0  0  0  0  0
   29.3476   -0.1993   10.8295 C   0  0  1  0  0  0  0  0  0  0  0  0
   28.7723    0.9952    7.2728 O   0  0  0  0  0  0  0  0  0  0  0  0
   29.4318   -1.6859   10.4756 C   0  0  1  0  0  0  0  0  0  0  0  0
   30.4578    1.7668    5.8391 O   0  0  0  0  0  0  0  0  0  0  0  0
   30.2501   -1.8895    9.1961 C   0  0  0  0  0  0  0  0  0  0  0  0
   28.4367    1.1674    2.7998 O   0  0  0  0  0  0  0  0  0  0  0  0
   29.5922   -1.1199    8.0474 C   0  0  1  0  0  0  0  0  0  0  0  0
   26.9210    3.1755    4.1039 O   0  0  0  0  0  0  0  0  0  0  0  0
   29.4860    0.3765    8.3562 C   0  0  2  0  0  0  0  0  0  0  0  0
   29.4212    2.1687    6.7536 C   0  0  1  0  0  0  0  0  0  0  0  0
   29.9756    1.0597    4.6787 C   0  0  2  0  0  0  0  0  0  0  0  0
   31.1369    0.7043    3.7476 C   0  0  0  0  0  0  0  0  0  0  0  0
   28.9742    1.9135    3.8962 C   0  0  2  0  0  0  0  0  0  0  0  0
   27.8237    2.3269    4.8156 C   0  0  1  0  0  0  0  0  0  0  0  0
   28.4024    3.0578    6.0300 C   0  0  1  0  0  0  0  0  0  0  0  0
  5  4  1  1  0  0  0
  5  8  1  0  0  0  0
  5 16  1  0  0  0  0
  8  7  1  1  0  0  0
  8 10  1  0  0  0  0
 10  1  1  1  0  0  0
 10 12  1  0  0  0  0
 11 18  1  0  0  0  0
 12 14  1  0  0  0  0
 14  2  1  6  0  0  0
 14 16  1  0  0  0  0
 16  9  1  6  0  0  0
 17  9  1  6  0  0  0
 17 11  1  0  0  0  0
 17 22  1  0  0  0  0
 18 19  1  6  0  0  0
 18 20  1  0  0  0  0
 19  3  1  0  0  0  0
 20 13  1  6  0  0  0
 20 21  1  0  0  0  0
 21 15  1  6  0  0  0
 21 22  1  0  0  0  0
 22  6  1  1  0  0  0
M  END
>  <CHROM.1>
108.68554172,81.41905407,62.40394174,29.26362905,0.74885078,7.17986354,-1.47699240
0.86007118,-1.24046055

>  <Name>
2fcx_lig

>  <RI>
2.51704e+07

>  <Rbt.Current_Directory>
/home/itssahil/PROJECTS/Mol_Feturizer/New_Systems/rnas/2fcx

>  <Rbt.Executable>
rbdock ($Id: //depot/dev/client3/rdock/2013.1/src/exe/rbdock.cxx#4 $)

>  <Rbt.Library>
libRbt.so (2013.1, Build901 2013/11/27)

>  <Rbt.Parameter_File>
/export/apps/rDock/src/rDock_2013.1_src/data/scripts/dock_solv.prm

>  <Rbt.Receptor>
prm/blind_docking_80.prm

>  <SCORE>
-12.6741

>  <SCORE.INTER>
-15.0283

>  <SCORE.INTER.CONST>
1

>  <SCORE.INTER.POLAR>
-1.89443

>  <SCORE.INTER.ROT>
3

>  <SCORE.INTER.SOLV>
8.33519

>  <SCORE.INTER.VDW>
-12.0825

>  <SCORE.INTER.norm>
-0.683106

>  <SCORE.INTRA>
2.35424

>  <SCORE.INTRA.DIHEDRAL>
3.76325

>  <SCORE.INTRA.DIHEDRAL.0>
4.88619

>  <SCORE.INTRA.POLAR>
0

>  <SCORE.INTRA.POLAR.0>
0

>  <SCORE.INTRA.REPUL>
0

>  <SCORE.INTRA.REPUL.0>
0

>  <SCORE.INTRA.SOLV>
2.98778

>  <SCORE.INTRA.SOLV.lig_0>
-73.8187

>  <SCORE.INTRA.VDW>
-1.02128

>  <SCORE.INTRA.VDW.0>
-1.32335

>  <SCORE.INTRA.norm>
0.107011

>  <SCORE.RESTR>
0

>  <SCORE.RESTR.CAVITY>
0

>  <SCORE.RESTR.norm>
0

>  <SCORE.SYSTEM>
0

>  <SCORE.SYSTEM.CONST>
0

>  <SCORE.SYSTEM.DIHEDRAL>
0

>  <SCORE.SYSTEM.SOLV>
0

>  <SCORE.SYSTEM.norm>
0

>  <SCORE.heavy>
22

>  <SCORE.norm>
-0.576096

>  <RMSD>
13.274

$$$$
2fcx_lig
 OpenBabel11021811433D
libRbt.so/2013.1/901 2013/11/27
 22 23  0  0  0  0  0  0  0  0999 V2000
   33.8183   -1.5111    3.4406 N   0  0  0  0  0  0  0  0  0  0  0  0
   31.0320   -2.4929    7.3581 N   0  0  0  0  0  0  0  0  0  0  0  0
   28.3496   -0.6481   11.8603 N   0  0  0  0  0  0  0  0  0  0  0  0
   29.4793    0.6551    3.9878 O   0  0  0  0  0  0  0  0  0  0  0  0
   30.6362    0.1817    4.6829 C   0  0  2  0  0  0  0  0  0  0  0  0
   26.6488   -0.6520    6.0690 N   0  0  0  0  0  0  0  0  0  0  0  0
   32.0733    0.7066    2.8343 O   0  0  0  0  0  0  0  0  0  0  0  0
   31.6569   -0.3687    3.6841 C   0  0  1  0  0  0  0  0  0  0  0  0
   29.4110   -0.2545    6.7419 O   0  0  0  0  0  0  0  0  0  0  0  0
   32.8727   -0.9448    4.4135 C   0  0  1  0  0  0  0  0  0  0  0  0
   29.0773   -1.2530    8.8356 O   0  0  0  0  0  0  0  0  0  0  0  0
   32.4429   -2.0417    5.3936 C   0  0  0  0  0  0  0  0  0  0  0  0
   27.3976    1.7347   10.2261 O   0  0  0  0  0  0  0  0  0  0  0  0
   31.4592   -1.4546    6.4097 C   0  0  1  0  0  0  0  0  0  0  0  0
   25.5834    0.9569    8.1929 O   0  0  0  0  0  0  0  0  0  0  0  0
   30.2227   -0.8649    5.7248 C   0  0  2  0  0  0  0  0  0  0  0  0
   28.6074   -1.1942    7.4762 C   0  0  1  0  0  0  0  0  0  0  0  0
   28.9524   -0.0095    9.5546 C   0  0  2  0  0  0  0  0  0  0  0  0
   29.4401   -0.1730   10.9958 C   0  0  0  0  0  0  0  0  0  0  0  0
   27.4945    0.4570    9.5890 C   0  0  2  0  0  0  0  0  0  0  0  0
   26.9619    0.5824    8.1606 C   0  0  1  0  0  0  0  0  0  0  0  0
   27.1360   -0.7627    7.4505 C   0  0  1  0  0  0  0  0  0  0  0  0
  5  4  1  6  0  0  0
  5  8  1  0  0  0  0
  5 16  1  0  0  0  0
  8  7  1  6  0  0  0
  8 10  1  0  0  0  0
 10  1  1  6  0  0  0
 10 12  1  0  0  0  0
 11 18  1  0  0  0  0
 12 14  1  0  0  0  0
 14  2  1  1  0  0  0
 14 16  1  0  0  0  0
 16  9  1  1  0  0  0
 17  9  1  6  0  0  0
 17 11  1  0  0  0  0
 17 22  1  0  0  0  0
 18 19  1  1  0  0  0
 18 20  1  0  0  0  0
 19  3  1  0  0  0  0
 20 13  1  6  0  0  0
 20 21  1  0  0  0  0
 21 15  1  1  0  0  0
 21 22  1  0  0  0  0
 22  6  1  6  0  0  0
M  END
>  <CHROM.1>
159.47469694,112.82589305,-87.10560686,29.55061634,-0.39199945,6.96020362
-0.81335083,-0.41723695,1.77305038

>  <Name>
2fcx_lig

>  <RI>
2.63278e+07

>  <Rbt.Current_Directory>
/home/itssahil/PROJECTS/Mol_Feturizer/New_Systems/rnas/2fcx

>  <Rbt.Executable>
rbdock ($Id: //depot/dev/client3/rdock/2013.1/src/exe/rbdock.cxx#4 $)

>  <Rbt.Library>
libRbt.so (2013.1, Build901 2013/11/27)

>  <Rbt.Parameter_File>
/export/apps/rDock/src/rDock_2013.1_src/data/scripts/dock_solv.prm

>  <Rbt.Receptor>
prm/blind_docking_40.prm

>  <SCORE>
-12.2243

>  <SCORE.INTER>
-17.8331

>  <SCORE.INTER.CONST>
1

>  <SCORE.INTER.POLAR>
-2.45201

>  <SCORE.INTER.ROT>
3

>  <SCORE.INTER.SOLV>
11.5878

>  <SCORE.INTER.VDW>
-13.178

>  <SCORE.INTER.norm>
-0.810596

>  <SCORE.INTRA>
5.60877

>  <SCORE.INTRA.DIHEDRAL>
6.20086

>  <SCORE.INTRA.DIHEDRAL.0>
4.88619

>  <SCORE.INTRA.POLAR>
0

>  <SCORE.INTRA.POLAR.0>
0

>  <SCORE.INTRA.REPUL>
0

>  <SCORE.INTRA.REPUL.0>
0

>  <SCORE.INTRA.SOLV>
3.27058

>  <SCORE.INTRA.SOLV.lig_0>
-73.8187

>  <SCORE.INTRA.VDW>
0.87305

>  <SCORE.INTRA.VDW.0>
-1.32335

>  <SCORE.INTRA.norm>
0.254944

>  <SCORE.RESTR>
0

>  <SCORE.RESTR.CAVITY>
0

>  <SCORE.RESTR.norm>
0

>  <SCORE.SYSTEM>
0

>  <SCORE.SYSTEM.CONST>
0

>  <SCORE.SYSTEM.DIHEDRAL>
0

>  <SCORE.SYSTEM.SOLV>
0

>  <SCORE.SYSTEM.norm>
0

>  <SCORE.heavy>
22

>  <SCORE.norm>
-0.555652

>  <RMSD>
13.279

$$$$
2fcx_lig
 OpenBabel11021811433D
libRbt.so/2013.1/901 2013/11/27
 22 23  0  0  0  0  0  0  0  0999 V2000
   31.9702   -0.1829    2.5366 N   0  0  0  0  0  0  0  0  0  0  0  0
   31.6289   -3.0444    6.5077 N   0  0  0  0  0  0  0  0  0  0  0  0
   31.2449   -2.4846   11.8167 N   0  0  0  0  0  0  0  0  0  0  0  0
   28.5311    0.6581    5.8957 O   0  0  0  0  0  0  0  0  0  0  0  0
   29.8838    0.2372    5.6997 C   0  0  2  0  0  0  0  0  0  0  0  0
   27.1517   -1.3162    6.9251 N   0  0  0  0  0  0  0  0  0  0  0  0
   30.1491    1.6704    3.7935 O   0  0  0  0  0  0  0  0  0  0  0  0
   30.2415    0.3039    4.2131 C   0  0  1  0  0  0  0  0  0  0  0  0
   29.9084   -1.1419    7.7069 O   0  0  0  0  0  0  0  0  0  0  0  0
   31.6632   -0.2098    3.9742 C   0  0  1  0  0  0  0  0  0  0  0  0
   29.5154   -2.5664    9.5257 O   0  0  0  0  0  0  0  0  0  0  0  0
   31.8120   -1.6440    4.4930 C   0  0  0  0  0  0  0  0  0  0  0  0
   27.8710    0.0836   11.5144 O   0  0  0  0  0  0  0  0  0  0  0  0
   31.4946   -1.6752    5.9907 C   0  0  1  0  0  0  0  0  0  0  0  0
   26.0798   -0.1864    9.3353 O   0  0  0  0  0  0  0  0  0  0  0  0
   30.0783   -1.1690    6.2798 C   0  0  2  0  0  0  0  0  0  0  0  0
   29.0723   -2.2001    8.2060 C   0  0  1  0  0  0  0  0  0  0  0  0
   29.4024   -1.5078   10.4982 C   0  0  2  0  0  0  0  0  0  0  0  0
   29.8597   -1.9946   11.8750 C   0  0  0  0  0  0  0  0  0  0  0  0
   27.9538   -1.0254   10.6140 C   0  0  2  0  0  0  0  0  0  0  0  0
   27.4508   -0.5776    9.2407 C   0  0  1  0  0  0  0  0  0  0  0  0
   27.6107   -1.7383    8.2553 C   0  0  1  0  0  0  0  0  0  0  0  0
  5  4  1  6  0  0  0
  5  8  1  0  0  0  0
  5 16  1  0  0  0  0
  8  7  1  1  0  0  0
  8 10  1  0  0  0  0
 10  1  1  6  0  0  0
 10 12  1  0  0  0  0
 11 18  1  0  0  0  0
 12 14  1  0  0  0  0
 14  2  1  6  0  0  0
 14 16  1  0  0  0  0
 16  9  1  1  0  0  0
 17  9  1  1  0  0  0
 17 11  1  0  0  0  0
 17 22  1  0  0  0  0
 18 19  1  1  0  0  0
 18 20  1  0  0  0  0
 19  3  1  0  0  0  0
 20 13  1  1  0  0  0
 20 21  1  0  0  0  0
 21 15  1  1  0  0  0
 21 22  1  0  0  0  0
 22  6  1  6  0  0  0
M  END
>  <CHROM.1>
133.72606054,148.46788179,57.72065008,29.53991641,-0.95946336,7.51971396
-1.17171862,-0.49920772,1.94552740

>  <Name>
2fcx_lig

>  <RI>
2.51704e+07

>  <Rbt.Current_Directory>
/home/itssahil/PROJECTS/Mol_Feturizer/New_Systems/rnas/2fcx

>  <Rbt.Executable>
rbdock ($Id: //depot/dev/client3/rdock/2013.1/src/exe/rbdock.cxx#4 $)

>  <Rbt.Library>
libRbt.so (2013.1, Build901 2013/11/27)

>  <Rbt.Parameter_File>
/export/apps/rDock/src/rDock_2013.1_src/data/scripts/dock_solv.prm

>  <Rbt.Receptor>
prm/blind_docking_80.prm

>  <SCORE>
-8.99344

>  <SCORE.INTER>
-12.3031

>  <SCORE.INTER.CONST>
1

>  <SCORE.INTER.POLAR>
-1.47064

>  <SCORE.INTER.ROT>
3

>  <SCORE.INTER.SOLV>
10.365

>  <SCORE.INTER.VDW>
-12.355

>  <SCORE.INTER.norm>
-0.559233

>  <SCORE.INTRA>
3.30969

>  <SCORE.INTRA.DIHEDRAL>
5.33814

>  <SCORE.INTRA.DIHEDRAL.0>
4.88619

>  <SCORE.INTRA.POLAR>
0

>  <SCORE.INTRA.POLAR.0>
0

>  <SCORE.INTRA.REPUL>
0

>  <SCORE.INTRA.REPUL.0>
0

>  <SCORE.INTRA.SOLV>
2.01097

>  <SCORE.INTRA.SOLV.lig_0>
-73.8187

>  <SCORE.INTRA.VDW>
-0.364865

>  <SCORE.INTRA.VDW.0>
-1.32335

>  <SCORE.INTRA.norm>
0.150441

>  <SCORE.RESTR>
0

>  <SCORE.RESTR.CAVITY>
0

>  <SCORE.RESTR.norm>
0

>  <SCORE.SYSTEM>
0

>  <SCORE.SYSTEM.CONST>
0

>  <SCORE.SYSTEM.DIHEDRAL>
0

>  <SCORE.SYSTEM.SOLV>
0

>  <SCORE.SYSTEM.norm>
0

>  <SCORE.heavy>
22

>  <SCORE.norm>
-0.408793

>  <RMSD>
13.283

$$$$
2fcx_lig
 OpenBabel11021811433D
libRbt.so/2013.1/901 2013/11/27
 22 23  0  0  0  0  0  0  0  0999 V2000
   31.7345   -2.6011   12.3216 N   0  0  0  0  0  0  0  0  0  0  0  0
   30.8399   -1.2103    7.7020 N   0  0  0  0  0  0  0  0  0  0  0  0
   30.9385    0.4730    4.9729 N   0  0  0  0  0  0  0  0  0  0  0  0
   27.7696    0.0408   11.2640 O   0  0  0  0  0  0  0  0  0  0  0  0
   28.6321   -0.9978   10.7920 C   0  0  2  0  0  0  0  0  0  0  0  0
   25.5942    0.6773    8.6754 N   0  0  0  0  0  0  0  0  0  0  0  0
   29.0562   -1.7825   13.0197 O   0  0  0  0  0  0  0  0  0  0  0  0
   29.7073   -1.2999   11.8385 C   0  0  1  0  0  0  0  0  0  0  0  0
   28.2015   -0.5017    8.4468 O   0  0  0  0  0  0  0  0  0  0  0  0
   30.6830   -2.3601   11.3226 C   0  0  1  0  0  0  0  0  0  0  0  0
   28.8319    1.1200    6.8771 O   0  0  0  0  0  0  0  0  0  0  0  0
   31.3310   -1.9031   10.0113 C   0  0  0  0  0  0  0  0  0  0  0  0
   26.9077   -0.4718    4.1486 O   0  0  0  0  0  0  0  0  0  0  0  0
   30.2384   -1.6529    8.9679 C   0  0  1  0  0  0  0  0  0  0  0  0
   24.8419    0.2866    5.9340 O   0  0  0  0  0  0  0  0  0  0  0  0
   29.2357   -0.5961    9.4406 C   0  0  2  0  0  0  0  0  0  0  0  0
   27.9638    0.8412    7.9911 C   0  0  1  0  0  0  0  0  0  0  0  0
   28.5962    0.2852    5.7254 C   0  0  2  0  0  0  0  0  0  0  0  0
   29.5353    0.6737    4.5813 C   0  0  0  0  0  0  0  0  0  0  0  0
   27.1531    0.4277    5.2340 C   0  0  2  0  0  0  0  0  0  0  0  0
   26.1880    0.0933    6.3726 C   0  0  1  0  0  0  0  0  0  0  0  0
   26.4994    1.0018    7.5648 C   0  0  1  0  0  0  0  0  0  0  0  0
  5  4  1  1  0  0  0
  5  8  1  0  0  0  0
  5 16  1  0  0  0  0
  8  7  1  1  0  0  0
  8 10  1  0  0  0  0
 10  1  1  1  0  0  0
 10 12  1  0  0  0  0
 11 18  1  0  0  0  0
 12 14  1  0  0  0  0
 14  2  1  6  0  0  0
 14 16  1  0  0  0  0
 16  9  1  6  0  0  0
 17  9  1  6  0  0  0
 17 11  1  0  0  0  0
 17 22  1  0  0  0  0
 18 19  1  6  0  0  0
 18 20  1  0  0  0  0
 19  3  1  0  0  0  0
 20 13  1  6  0  0  0
 20 21  1  0  0  0  0
 21 15  1  6  0  0  0
 21 22  1  0  0  0  0
 22  6  1  1  0  0  0
M  END
>  <CHROM.1>
111.94049540,88.90451120,61.92056652,28.62301365,-0.42184557,8.31928451,-1.13872016
0.26908743,-1.35157935

>  <Name>
2fcx_lig

>  <RI>
2.51704e+07

>  <Rbt.Current_Directory>
/home/itssahil/PROJECTS/Mol_Feturizer/New_Systems/rnas/2fcx

>  <Rbt.Executable>
rbdock ($Id: //depot/dev/client3/rdock/2013.1/src/exe/rbdock.cxx#4 $)

>  <Rbt.Library>
libRbt.so (2013.1, Build901 2013/11/27)

>  <Rbt.Parameter_File>
/export/apps/rDock/src/rDock_2013.1_src/data/scripts/dock_solv.prm

>  <Rbt.Receptor>
prm/blind_docking_80.prm

>  <SCORE>
-8.88052

>  <SCORE.INTER>
-12.0597

>  <SCORE.INTER.CONST>
1

>  <SCORE.INTER.POLAR>
-1.93743

>  <SCORE.INTER.ROT>
3

>  <SCORE.INTER.SOLV>
15.1779

>  <SCORE.INTER.VDW>
-12.241

>  <SCORE.INTER.norm>
-0.548166

>  <SCORE.INTRA>
3.17805

>  <SCORE.INTRA.DIHEDRAL>
5.41026

>  <SCORE.INTRA.DIHEDRAL.0>
4.88619

>  <SCORE.INTRA.POLAR>
0

>  <SCORE.INTRA.POLAR.0>
0

>  <SCORE.INTRA.REPUL>
0

>  <SCORE.INTRA.REPUL.0>
0

>  <SCORE.INTRA.SOLV>
3.00115

>  <SCORE.INTRA.SOLV.lig_0>
-73.8187

>  <SCORE.INTRA.VDW>
-1.02766

>  <SCORE.INTRA.VDW.0>
-1.32335

>  <SCORE.INTRA.norm>
0.144457

>  <SCORE.RESTR>
0.00108723

>  <SCORE.RESTR.CAVITY>
0.00108723

>  <SCORE.RESTR.norm>
4.94194e-05

>  <SCORE.SYSTEM>
0

>  <SCORE.SYSTEM.CONST>
0

>  <SCORE.SYSTEM.DIHEDRAL>
0

>  <SCORE.SYSTEM.SOLV>
0

>  <SCORE.SYSTEM.norm>
0

>  <SCORE.heavy>
22

>  <SCORE.norm>
-0.40366

>  <RMSD>
13.309

$$$$
2fcx_lig
 OpenBabel11021811433D
libRbt.so/2013.1/901 2013/11/27
 22 23  0  0  0  0  0  0  0  0999 V2000
   33.0922   -1.4969    3.4914 N   0  0  0  0  0  0  0  0  0  0  0  0
   30.4292   -3.4341    7.1288 N   0  0  0  0  0  0  0  0  0  0  0  0
   30.2400   -1.9422   12.4458 N   0  0  0  0  0  0  0  0  0  0  0  0
   29.2788    0.9361    5.3238 O   0  0  0  0  0  0  0  0  0  0  0  0
   30.3690    0.0702    5.6510 C   0  0  2  0  0  0  0  0  0  0  0  0
   26.3995   -0.4081    7.3618 N   0  0  0  0  0  0  0  0  0  0  0  0
   31.7571    1.0223    3.9408 O   0  0  0  0  0  0  0  0  0  0  0  0
   31.2025   -0.2161    4.3997 C   0  0  1  0  0  0  0  0  0  0  0  0
   29.2188   -0.9109    7.5604 O   0  0  0  0  0  0  0  0  0  0  0  0
   32.3335   -1.1978    4.7148 C   0  0  1  0  0  0  0  0  0  0  0  0
   28.8327   -2.6578    9.0740 O   0  0  0  0  0  0  0  0  0  0  0  0
   31.7702   -2.5024    5.2884 C   0  0  0  0  0  0  0  0  0  0  0  0
   28.1533   -0.3516   11.8850 O   0  0  0  0  0  0  0  0  0  0  0  0
   30.9810   -2.1945    6.5640 C   0  0  1  0  0  0  0  0  0  0  0  0
   26.0112    0.2459   10.1287 O   0  0  0  0  0  0  0  0  0  0  0  0
   29.8351   -1.2138    6.2977 C   0  0  2  0  0  0  0  0  0  0  0  0
   28.2676   -1.9011    7.9875 C   0  0  1  0  0  0  0  0  0  0  0  0
   29.1139   -1.8745   10.2514 C   0  0  2  0  0  0  0  0  0  0  0  0
   29.6760   -2.7627   11.3636 C   0  0  0  0  0  0  0  0  0  0  0  0
   27.8439   -1.1959   10.7719 C   0  0  2  0  0  0  0  0  0  0  0  0
   27.2299   -0.3379    9.6645 C   0  0  1  0  0  0  0  0  0  0  0  0
   26.9695   -1.2232    8.4429 C   0  0  1  0  0  0  0  0  0  0  0  0
  5  4  1  6  0  0  0
  5  8  1  0  0  0  0
  5 16  1  0  0  0  0
  8  7  1  1  0  0  0
  8 10  1  0  0  0  0
 10  1  1  6  0  0  0
 10 12  1  0  0  0  0
 11 18  1  0  0  0  0
 12 14  1  0  0  0  0
 14  2  1  6  0  0  0
 14 16  1  0  0  0  0
 16  9  1  1  0  0  0
 17  9  1  1  0  0  0
 17 11  1  0  0  0  0
 17 22  1  0  0  0  0
 18 19  1  1  0  0  0
 18 20  1  0  0  0  0
 19  3  1  0  0  0  0
 20 13  1  1  0  0  0
 20 21  1  0  0  0  0
 21 15  1  1  0  0  0
 21 22  1  0  0  0  0
 22  6  1  6  0  0  0
M  END
>  <CHROM.1>
157.40738253,107.01373067,167.39825498,29.47902431,-1.12873849,7.73351172
-0.93242148,-0.55874503,2.01973914

>  <Name>
2fcx_lig

>  <RI>
224

>  <Rbt.Current_Directory>
/home/itssahil/PROJECTS/Mol_Feturizer/New_Systems/rnas/2fcx

>  <Rbt.Executable>
rbdock ($Id: //depot/dev/client3/rdock/2013.1/src/exe/rbdock.cxx#4 $)

>  <Rbt.Library>
libRbt.so (2013.1, Build901 2013/11/27)

>  <Rbt.Parameter_File>
/export/apps/rDock/src/rDock_2013.1_src/data/scripts/dock_solv.prm

>  <Rbt.Receptor>
prm/blind_docking_100.prm

>  <SCORE>
-7.82724

>  <SCORE.INTER>
-11.6498

>  <SCORE.INTER.CONST>
1

>  <SCORE.INTER.POLAR>
-1.16074

>  <SCORE.INTER.ROT>
3

>  <SCORE.INTER.SOLV>
8.83474

>  <SCORE.INTER.VDW>
-12.4423

>  <SCORE.INTER.norm>
-0.529534

>  <SCORE.INTRA>
3.82251

>  <SCORE.INTRA.DIHEDRAL>
4.31659

>  <SCORE.INTRA.DIHEDRAL.0>
4.88619

>  <SCORE.INTRA.POLAR>
0

>  <SCORE.INTRA.POLAR.0>
0

>  <SCORE.INTRA.REPUL>
0

>  <SCORE.INTRA.REPUL.0>
0

>  <SCORE.INTRA.SOLV>
2.74387

>  <SCORE.INTRA.SOLV.lig_0>
-73.8187

>  <SCORE.INTRA.VDW>
0.292282

>  <SCORE.INTRA.VDW.0>
-1.32335

>  <SCORE.INTRA.norm>
0.173751

>  <SCORE.RESTR>
0

>  <SCORE.RESTR.CAVITY>
0

>  <SCORE.RESTR.norm>
0

>  <SCORE.SYSTEM>
0

>  <SCORE.SYSTEM.CONST>
0

>  <SCORE.SYSTEM.DIHEDRAL>
0

>  <SCORE.SYSTEM.SOLV>
0

>  <SCORE.SYSTEM.norm>
0

>  <SCORE.heavy>
22

>  <SCORE.norm>
-0.355784

>  <RMSD>
13.327

$$$$
2fcx_lig
 OpenBabel11021811433D
libRbt.so/2013.1/901 2013/11/27
 22 23  0  0  0  0  0  0  0  0999 V2000
   33.0987   -1.0090    2.4960 N   0  0  0  0  0  0  0  0  0  0  0  0
   29.4509    1.7785    4.2274 N   0  0  0  0  0  0  0  0  0  0  0  0
   29.8476    3.0851    9.9235 N   0  0  0  0  0  0  0  0  0  0  0  0
   31.0130   -2.0573    6.7820 O   0  0  0  0  0  0  0  0  0  0  0  0
   30.7673   -1.5704    5.4598 C   0  0  2  0  0  0  0  0  0  0  0  0
   26.7225   -1.4732    7.5935 N   0  0  0  0  0  0  0  0  0  0  0  0
   32.4858   -2.9632    4.5298 O   0  0  0  0  0  0  0  0  0  0  0  0
   32.0615   -1.5997    4.6434 C   0  0  1  0  0  0  0  0  0  0  0  0
   28.8604   -0.2193    6.1451 O   0  0  0  0  0  0  0  0  0  0  0  0
   31.8347   -1.0163    3.2469 C   0  0  1  0  0  0  0  0  0  0  0  0
   29.6239    0.8145    8.1047 O   0  0  0  0  0  0  0  0  0  0  0  0
   31.2984    0.4160    3.3421 C   0  0  0  0  0  0  0  0  0  0  0  0
   26.9320    3.3509    8.0647 O   0  0  0  0  0  0  0  0  0  0  0  0
   29.9808    0.4117    4.1221 C   0  0  1  0  0  0  0  0  0  0  0  0
   25.4556    0.9605    8.4339 O   0  0  0  0  0  0  0  0  0  0  0  0
   30.1584   -0.1646    5.5300 C   0  0  2  0  0  0  0  0  0  0  0  0
   28.9080   -0.3183    7.5789 C   0  0  1  0  0  0  0  0  0  0  0  0
   28.9940    2.0834    7.8365 C   0  0  2  0  0  0  0  0  0  0  0  0
   29.8010    3.2242    8.4603 C   0  0  0  0  0  0  0  0  0  0  0  0
   27.5771    2.1227    8.4152 C   0  0  2  0  0  0  0  0  0  0  0  0
   26.7584    0.9622    7.8471 C   0  0  1  0  0  0  0  0  0  0  0  0
   27.4862   -0.3496    8.1526 C   0  0  1  0  0  0  0  0  0  0  0  0
  5  4  1  1  0  0  0
  5  8  1  0  0  0  0
  5 16  1  0  0  0  0
  8  7  1  6  0  0  0
  8 10  1  0  0  0  0
 10  1  1  6  0  0  0
 10 12  1  0  0  0  0
 11 18  1  0  0  0  0
 12 14  1  0  0  0  0
 14  2  1  1  0  0  0
 14 16  1  0  0  0  0
 16  9  1  6  0  0  0
 17  9  1  6  0  0  0
 17 11  1  0  0  0  0
 17 22  1  0  0  0  0
 18 19  1  1  0  0  0
 18 20  1  0  0  0  0
 19  3  1  0  0  0  0
 20 13  1  6  0  0  0
 20 21  1  0  0  0  0
 21 15  1  1  0  0  0
 21 22  1  0  0  0  0
 22  6  1  6  0  0  0
M  END
>  <CHROM.1>
78.76543609,58.47351207,-62.47438286,29.49000278,0.28973390,6.43328172,-0.60936243
0.70452350,0.22098619

>  <Name>
2fcx_lig

>  <RI>
2.51704e+07

>  <Rbt.Current_Directory>
/home/itssahil/PROJECTS/Mol_Feturizer/New_Systems/rnas/2fcx

>  <Rbt.Executable>
rbdock ($Id: //depot/dev/client3/rdock/2013.1/src/exe/rbdock.cxx#4 $)

>  <Rbt.Library>
libRbt.so (2013.1, Build901 2013/11/27)

>  <Rbt.Parameter_File>
/export/apps/rDock/src/rDock_2013.1_src/data/scripts/dock_solv.prm

>  <Rbt.Receptor>
prm/blind_docking_80.prm

>  <SCORE>
-13.4922

>  <SCORE.INTER>
-12.4222

>  <SCORE.INTER.CONST>
1

>  <SCORE.INTER.POLAR>
-1.75671

>  <SCORE.INTER.ROT>
3

>  <SCORE.INTER.SOLV>
13.1297

>  <SCORE.INTER.VDW>
-12.4023

>  <SCORE.INTER.norm>
-0.564644

>  <SCORE.INTRA>
-1.08017

>  <SCORE.INTRA.DIHEDRAL>
-3.24039

>  <SCORE.INTRA.DIHEDRAL.0>
4.88619

>  <SCORE.INTRA.POLAR>
0

>  <SCORE.INTRA.POLAR.0>
0

>  <SCORE.INTRA.REPUL>
0

>  <SCORE.INTRA.REPUL.0>
0

>  <SCORE.INTRA.SOLV>
1.0004

>  <SCORE.INTRA.SOLV.lig_0>
-73.8187

>  <SCORE.INTRA.VDW>
0.039825

>  <SCORE.INTRA.VDW.0>
-1.32335

>  <SCORE.INTRA.norm>
-0.0490986

>  <SCORE.RESTR>
0.0101713

>  <SCORE.RESTR.CAVITY>
0.0101713

>  <SCORE.RESTR.norm>
0.000462332

>  <SCORE.SYSTEM>
0

>  <SCORE.SYSTEM.CONST>
0

>  <SCORE.SYSTEM.DIHEDRAL>
0

>  <SCORE.SYSTEM.SOLV>
0

>  <SCORE.SYSTEM.norm>
0

>  <SCORE.heavy>
22

>  <SCORE.norm>
-0.61328

>  <RMSD>
13.370

$$$$
2fcx_lig
 OpenBabel11021811433D
libRbt.so/2013.1/901 2013/11/27
 22 23  0  0  0  0  0  0  0  0999 V2000
   29.3781   -2.8758   11.5259 N   0  0  0  0  0  0  0  0  0  0  0  0
   29.5334   -1.7705    6.7480 N   0  0  0  0  0  0  0  0  0  0  0  0
   31.9875   -0.1505    4.7956 N   0  0  0  0  0  0  0  0  0  0  0  0
   28.5754    1.6979   10.0240 O   0  0  0  0  0  0  0  0  0  0  0  0
   28.3699    0.3188    9.7057 C   0  0  2  0  0  0  0  0  0  0  0  0
   26.7425    3.0978    6.9338 N   0  0  0  0  0  0  0  0  0  0  0  0
   28.2063   -0.2851   12.0223 O   0  0  0  0  0  0  0  0  0  0  0  0
   28.9345   -0.5644   10.8208 C   0  0  1  0  0  0  0  0  0  0  0  0
   28.3105    0.7220    7.3046 O   0  0  0  0  0  0  0  0  0  0  0  0
   28.7873   -2.0458   10.4658 C   0  0  1  0  0  0  0  0  0  0  0  0
   30.1120    1.6949    6.1645 O   0  0  0  0  0  0  0  0  0  0  0  0
   29.4872   -2.3536    9.1378 C   0  0  0  0  0  0  0  0  0  0  0  0
   28.5488    1.2049    2.8482 O   0  0  0  0  0  0  0  0  0  0  0  0
   28.8728   -1.4920    8.0310 C   0  0  1  0  0  0  0  0  0  0  0  0
   26.7437    3.0187    4.0653 O   0  0  0  0  0  0  0  0  0  0  0  0
   28.9970    0.0024    8.3424 C   0  0  2  0  0  0  0  0  0  0  0  0
   28.9403    1.9666    6.9555 C   0  0  1  0  0  0  0  0  0  0  0  0
   29.8340    1.0485    4.9059 C   0  0  2  0  0  0  0  0  0  0  0  0
   31.1279    0.8316    4.1182 C   0  0  0  0  0  0  0  0  0  0  0  0
   28.8872    1.8979    4.0535 C   0  0  2  0  0  0  0  0  0  0  0  0
   27.6016    2.1741    4.8348 C   0  0  1  0  0  0  0  0  0  0  0  0
   27.9665    2.8457    6.1614 C   0  0  1  0  0  0  0  0  0  0  0  0
  5  4  1  1  0  0  0
  5  8  1  0  0  0  0
  5 16  1  0  0  0  0
  8  7  1  1  0  0  0
  8 10  1  0  0  0  0
 10  1  1  1  0  0  0
 10 12  1  0  0  0  0
 11 18  1  0  0  0  0
 12 14  1  0  0  0  0
 14  2  1  6  0  0  0
 14 16  1  0  0  0  0
 16  9  1  6  0  0  0
 17  9  1  6  0  0  0
 17 11  1  0  0  0  0
 17 22  1  0  0  0  0
 18 19  1  6  0  0  0
 18 20  1  0  0  0  0
 19  3  1  0  0  0  0
 20 13  1  6  0  0  0
 20 21  1  0  0  0  0
 21 15  1  6  0  0  0
 21 22  1  0  0  0  0
 22  6  1  1  0  0  0
M  END
>  <CHROM.1>
95.27820336,75.50768238,67.29055950,28.89381422,0.52791055,7.25837266,-1.54970796
0.85583722,-1.12840828

>  <Name>
2fcx_lig

>  <RI>
224

>  <Rbt.Current_Directory>
/home/itssahil/PROJECTS/Mol_Feturizer/New_Systems/rnas/2fcx

>  <Rbt.Executable>
rbdock ($Id: //depot/dev/client3/rdock/2013.1/src/exe/rbdock.cxx#4 $)

>  <Rbt.Library>
libRbt.so (2013.1, Build901 2013/11/27)

>  <Rbt.Parameter_File>
/export/apps/rDock/src/rDock_2013.1_src/data/scripts/dock_solv.prm

>  <Rbt.Receptor>
prm/blind_docking_60.prm

>  <SCORE>
-12.8082

>  <SCORE.INTER>
-13.357

>  <SCORE.INTER.CONST>
1

>  <SCORE.INTER.POLAR>
-1.89407

>  <SCORE.INTER.ROT>
3

>  <SCORE.INTER.SOLV>
8.41475

>  <SCORE.INTER.VDW>
-10.996

>  <SCORE.INTER.norm>
-0.607137

>  <SCORE.INTRA>
0.54882

>  <SCORE.INTRA.DIHEDRAL>
1.01239

>  <SCORE.INTRA.DIHEDRAL.0>
4.88619

>  <SCORE.INTRA.POLAR>
0

>  <SCORE.INTRA.POLAR.0>
0

>  <SCORE.INTRA.REPUL>
0

>  <SCORE.INTRA.REPUL.0>
0

>  <SCORE.INTRA.SOLV>
1.70635

>  <SCORE.INTRA.SOLV.lig_0>
-73.8187

>  <SCORE.INTRA.VDW>
-0.810551

>  <SCORE.INTRA.VDW.0>
-1.32335

>  <SCORE.INTRA.norm>
0.0249464

>  <SCORE.RESTR>
0

>  <SCORE.RESTR.CAVITY>
0

>  <SCORE.RESTR.norm>
0

>  <SCORE.SYSTEM>
0

>  <SCORE.SYSTEM.CONST>
0

>  <SCORE.SYSTEM.DIHEDRAL>
0

>  <SCORE.SYSTEM.SOLV>
0

>  <SCORE.SYSTEM.norm>
0

>  <SCORE.heavy>
22

>  <SCORE.norm>
-0.58219

>  <RMSD>
13.395

$$$$
2fcx_lig
 OpenBabel11021811433D
libRbt.so/2013.1/901 2013/11/27
 22 23  0  0  0  0  0  0  0  0999 V2000
   33.3899   -2.9327    4.2002 N   0  0  0  0  0  0  0  0  0  0  0  0
   30.9796    1.2475    5.0900 N   0  0  0  0  0  0  0  0  0  0  0  0
   24.5836    1.6414    7.6225 N   0  0  0  0  0  0  0  0  0  0  0  0
   30.5012   -2.5350    8.1139 O   0  0  0  0  0  0  0  0  0  0  0  0
   30.6537   -2.1634    6.7412 C   0  0  2  0  0  0  0  0  0  0  0  0
   30.7115    0.4204    9.4860 N   0  0  0  0  0  0  0  0  0  0  0  0
   31.7725   -4.2200    6.2147 O   0  0  0  0  0  0  0  0  0  0  0  0
   31.9232   -2.7962    6.1666 C   0  0  1  0  0  0  0  0  0  0  0  0
   29.3806   -0.1031    6.9970 O   0  0  0  0  0  0  0  0  0  0  0  0
   32.1417   -2.3534    4.7180 C   0  0  1  0  0  0  0  0  0  0  0  0
   28.2697    1.9566    7.1215 O   0  0  0  0  0  0  0  0  0  0  0  0
   32.2214   -0.8257    4.6281 C   0  0  0  0  0  0  0  0  0  0  0  0
   25.8744    0.7479    9.6677 O   0  0  0  0  0  0  0  0  0  0  0  0
   30.9220   -0.2192    5.1649 C   0  0  1  0  0  0  0  0  0  0  0  0
   28.3286    0.5907   11.0756 O   0  0  0  0  0  0  0  0  0  0  0  0
   30.6603   -0.6350    6.6156 C   0  0  2  0  0  0  0  0  0  0  0  0
   29.4478    1.2334    7.5232 C   0  0  1  0  0  0  0  0  0  0  0  0
   27.0401    1.4103    7.6396 C   0  0  2  0  0  0  0  0  0  0  0  0
   25.8474    2.2592    7.1940 C   0  0  0  0  0  0  0  0  0  0  0  0
   27.0610    1.3741    9.1702 C   0  0  2  0  0  0  0  0  0  0  0  0
   28.2728    0.5723    9.6480 C   0  0  1  0  0  0  0  0  0  0  0  0
   29.5395    1.1935    9.0535 C   0  0  1  0  0  0  0  0  0  0  0  0
  5  4  1  1  0  0  0
  5  8  1  0  0  0  0
  5 16  1  0  0  0  0
  8  7  1  6  0  0  0
  8 10  1  0  0  0  0
 10  1  1  1  0  0  0
 10 12  1  0  0  0  0
 11 18  1  0  0  0  0
 12 14  1  0  0  0  0
 14  2  1  1  0  0  0
 14 16  1  0  0  0  0
 16  9  1  6  0  0  0
 17  9  1  1  0  0  0
 17 11  1  0  0  0  0
 17 22  1  0  0  0  0
 18 19  1  1  0  0  0
 18 20  1  0  0  0  0
 19  3  1  0  0  0  0
 20 13  1  6  0  0  0
 20 21  1  0  0  0  0
 21 15  1  1  0  0  0
 21 22  1  0  0  0  0
 22  6  1  6  0  0  0
M  END
>  <CHROM.1>
151.88181987,145.02710970,175.11902077,29.49659284,-0.20195055,7.30245755
0.22638041,0.73149479,-1.17201176

>  <Name>
2fcx_lig

>  <RI>
224

>  <Rbt.Current_Directory>
/home/itssahil/PROJECTS/Mol_Feturizer/New_Systems/rnas/2fcx

>  <Rbt.Executable>
rbdock ($Id: //depot/dev/client3/rdock/2013.1/src/exe/rbdock.cxx#4 $)

>  <Rbt.Library>
libRbt.so (2013.1, Build901 2013/11/27)

>  <Rbt.Parameter_File>
/export/apps/rDock/src/rDock_2013.1_src/data/scripts/dock_solv.prm

>  <Rbt.Receptor>
prm/blind_docking_100.prm

>  <SCORE>
-10.5707

>  <SCORE.INTER>
-13.8113

>  <SCORE.INTER.CONST>
1

>  <SCORE.INTER.POLAR>
-2.38975

>  <SCORE.INTER.ROT>
3

>  <SCORE.INTER.SOLV>
15.7324

>  <SCORE.INTER.VDW>
-12.0858

>  <SCORE.INTER.norm>
-0.627785

>  <SCORE.INTRA>
3.23999

>  <SCORE.INTRA.DIHEDRAL>
2.9811

>  <SCORE.INTRA.DIHEDRAL.0>
4.88619

>  <SCORE.INTRA.POLAR>
0

>  <SCORE.INTRA.POLAR.0>
0

>  <SCORE.INTRA.REPUL>
0

>  <SCORE.INTRA.REPUL.0>
0

>  <SCORE.INTRA.SOLV>
3.00889

>  <SCORE.INTRA.SOLV.lig_0>
-73.8187

>  <SCORE.INTRA.VDW>
0.245002

>  <SCORE.INTRA.VDW.0>
-1.32335

>  <SCORE.INTRA.norm>
0.147272

>  <SCORE.RESTR>
0.000558794

>  <SCORE.RESTR.CAVITY>
0.000558794

>  <SCORE.RESTR.norm>
2.53997e-05

>  <SCORE.SYSTEM>
0

>  <SCORE.SYSTEM.CONST>
0

>  <SCORE.SYSTEM.DIHEDRAL>
0

>  <SCORE.SYSTEM.SOLV>
0

>  <SCORE.SYSTEM.norm>
0

>  <SCORE.heavy>
22

>  <SCORE.norm>
-0.480487

>  <RMSD>
13.435

$$$$
2fcx_lig
 OpenBabel11021811433D
libRbt.so/2013.1/901 2013/11/27
 22 23  0  0  0  0  0  0  0  0999 V2000
   33.8227   -2.4078    3.3982 N   0  0  0  0  0  0  0  0  0  0  0  0
   31.6984   -2.5963    7.8171 N   0  0  0  0  0  0  0  0  0  0  0  0
   27.1561   -2.7287   10.3768 N   0  0  0  0  0  0  0  0  0  0  0  0
   29.9527    0.3930    4.3971 O   0  0  0  0  0  0  0  0  0  0  0  0
   31.1504   -0.1686    4.9409 C   0  0  2  0  0  0  0  0  0  0  0  0
   29.6528    2.5696    7.4442 N   0  0  0  0  0  0  0  0  0  0  0  0
   32.2797   -0.0361    2.8278 O   0  0  0  0  0  0  0  0  0  0  0  0
   31.8973   -0.9531    3.8596 C   0  0  1  0  0  0  0  0  0  0  0  0
   30.2771   -0.2229    7.2136 O   0  0  0  0  0  0  0  0  0  0  0  0
   33.1463   -1.6207    4.4397 C   0  0  1  0  0  0  0  0  0  0  0  0
   28.0017   -0.7729    7.3219 O   0  0  0  0  0  0  0  0  0  0  0  0
   32.7720   -2.5442    5.6039 C   0  0  0  0  0  0  0  0  0  0  0  0
   27.8254   -0.2126   10.9738 O   0  0  0  0  0  0  0  0  0  0  0  0
   32.0688   -1.7271    6.6914 C   0  0  1  0  0  0  0  0  0  0  0  0
   28.4141    2.3924   10.0266 O   0  0  0  0  0  0  0  0  0  0  0  0
   30.8094   -1.0387    6.1568 C   0  0  2  0  0  0  0  0  0  0  0  0
   28.9443    0.2521    6.9569 C   0  0  1  0  0  0  0  0  0  0  0  0
   28.0162   -1.1120    8.7232 C   0  0  2  0  0  0  0  0  0  0  0  0
   26.9622   -2.1792    9.0267 C   0  0  0  0  0  0  0  0  0  0  0  0
   27.7192    0.1178    9.5856 C   0  0  2  0  0  0  0  0  0  0  0  0
   28.7282    1.2227    9.2685 C   0  0  1  0  0  0  0  0  0  0  0  0
   28.6726    1.5245    7.7686 C   0  0  1  0  0  0  0  0  0  0  0  0
  5  4  1  6  0  0  0
  5  8  1  0  0  0  0
  5 16  1  0  0  0  0
  8  7  1  6  0  0  0
  8 10  1  0  0  0  0
 10  1  1  6  0  0  0
 10 12  1  0  0  0  0
 11 18  1  0  0  0  0
 12 14  1  0  0  0  0
 14  2  1  1  0  0  0
 14 16  1  0  0  0  0
 16  9  1  1  0  0  0
 17  9  1  1  0  0  0
 17 11  1  0  0  0  0
 17 22  1  0  0  0  0
 18 19  1  6  0  0  0
 18 20  1  0  0  0  0
 19  3  1  0  0  0  0
 20 13  1  1  0  0  0
 20 21  1  0  0  0  0
 21 15  1  1  0  0  0
 21 22  1  0  0  0  0
 22  6  1  1  0  0  0
M  END
>  <CHROM.1>
72.42480043,83.00306958,168.22430536,29.97398379,-0.51415993,7.04701481,-0.11421402
-0.86786145,2.77056196

>  <Name>
2fcx_lig

>  <RI>
2.63278e+07

>  <Rbt.Current_Directory>
/home/itssahil/PROJECTS/Mol_Feturizer/New_Systems/rnas/2fcx

>  <Rbt.Executable>
rbdock ($Id: //depot/dev/client3/rdock/2013.1/src/exe/rbdock.cxx#4 $)

>  <Rbt.Library>
libRbt.so (2013.1, Build901 2013/11/27)

>  <Rbt.Parameter_File>
/export/apps/rDock/src/rDock_2013.1_src/data/scripts/dock_solv.prm

>  <Rbt.Receptor>
prm/blind_docking_40.prm

>  <SCORE>
-10.8657

>  <SCORE.INTER>
-11.0794

>  <SCORE.INTER.CONST>
1

>  <SCORE.INTER.POLAR>
-1.25551

>  <SCORE.INTER.ROT>
3

>  <SCORE.INTER.SOLV>
7.12253

>  <SCORE.INTER.VDW>
-11.1754

>  <SCORE.INTER.norm>
-0.503611

>  <SCORE.INTRA>
0.210159

>  <SCORE.INTRA.DIHEDRAL>
-1.34184

>  <SCORE.INTRA.DIHEDRAL.0>
4.88619

>  <SCORE.INTRA.POLAR>
0

>  <SCORE.INTRA.POLAR.0>
0

>  <SCORE.INTRA.REPUL>
0

>  <SCORE.INTRA.REPUL.0>
0

>  <SCORE.INTRA.SOLV>
0.847073

>  <SCORE.INTRA.SOLV.lig_0>
-73.8187

>  <SCORE.INTRA.VDW>
0.457543

>  <SCORE.INTRA.VDW.0>
-1.32335

>  <SCORE.INTRA.norm>
0.00955267

>  <SCORE.RESTR>
0.00362154

>  <SCORE.RESTR.CAVITY>
0.00362154

>  <SCORE.RESTR.norm>
0.000164615

>  <SCORE.SYSTEM>
0

>  <SCORE.SYSTEM.CONST>
0

>  <SCORE.SYSTEM.DIHEDRAL>
0

>  <SCORE.SYSTEM.SOLV>
0

>  <SCORE.SYSTEM.norm>
0

>  <SCORE.heavy>
22

>  <SCORE.norm>
-0.493893

>  <RMSD>
13.458

$$$$
2fcx_lig
 OpenBabel11021811433D
libRbt.so/2013.1/901 2013/11/27
 22 23  0  0  0  0  0  0  0  0999 V2000
   31.8847   -2.5565   12.4884 N   0  0  0  0  0  0  0  0  0  0  0  0
   30.7925   -2.1779    7.7200 N   0  0  0  0  0  0  0  0  0  0  0  0
   30.0322    2.4164    7.1492 N   0  0  0  0  0  0  0  0  0  0  0  0
   27.7307   -0.4229   11.0704 O   0  0  0  0  0  0  0  0  0  0  0  0
   28.6485   -1.4816   10.7836 C   0  0  2  0  0  0  0  0  0  0  0  0
   25.3518   -1.9919    7.8880 N   0  0  0  0  0  0  0  0  0  0  0  0
   29.1754   -1.7761   13.1060 O   0  0  0  0  0  0  0  0  0  0  0  0
   29.7654   -1.5025   11.8297 C   0  0  1  0  0  0  0  0  0  0  0  0
   28.1314   -1.4933    8.4037 O   0  0  0  0  0  0  0  0  0  0  0  0
   30.7965   -2.5844   11.5002 C   0  0  1  0  0  0  0  0  0  0  0  0
   27.8383    0.7877    7.9531 O   0  0  0  0  0  0  0  0  0  0  0  0
   31.3820   -2.3621   10.1016 C   0  0  0  0  0  0  0  0  0  0  0  0
   27.7062    0.2619    4.2942 O   0  0  0  0  0  0  0  0  0  0  0  0
   30.2513   -2.3924    9.0695 C   0  0  1  0  0  0  0  0  0  0  0  0
   25.3897   -1.1266    5.1523 O   0  0  0  0  0  0  0  0  0  0  0  0
   29.1925   -1.3241    9.3584 C   0  0  2  0  0  0  0  0  0  0  0  0
   27.1826   -0.4127    8.4021 C   0  0  1  0  0  0  0  0  0  0  0  0
   28.3298    0.7172    6.5994 C   0  0  2  0  0  0  0  0  0  0  0  0
   28.9771    2.0436    6.1952 C   0  0  0  0  0  0  0  0  0  0  0  0
   27.1915    0.4181    5.6202 C   0  0  2  0  0  0  0  0  0  0  0  0
   26.4915   -0.8793    6.0278 C   0  0  1  0  0  0  0  0  0  0  0  0
   26.0076   -0.7442    7.4740 C   0  0  1  0  0  0  0  0  0  0  0  0
  5  4  1  1  0  0  0
  5  8  1  0  0  0  0
  5 16  1  0  0  0  0
  8  7  1  1  0  0  0
  8 10  1  0  0  0  0
 10  1  1  1  0  0  0
 10 12  1  0  0  0  0
 11 18  1  0  0  0  0
 12 14  1  0  0  0  0
 14  2  1  6  0  0  0
 14 16  1  0  0  0  0
 16  9  1  6  0  0  0
 17  9  1  6  0  0  0
 17 11  1  0  0  0  0
 17 22  1  0  0  0  0
 18 19  1  6  0  0  0
 18 20  1  0  0  0  0
 19  3  1  0  0  0  0
 20 13  1  6  0  0  0
 20 21  1  0  0  0  0
 21 15  1  6  0  0  0
 21 22  1  0  0  0  0
 22  6  1  1  0  0  0
M  END
>  <CHROM.1>
70.11243796,65.62673430,55.23896360,28.52794577,-0.83073338,8.54168675,-1.06240159
-0.27101292,-1.06447096

>  <Name>
2fcx_lig

>  <RI>
224

>  <Rbt.Current_Directory>
/home/itssahil/PROJECTS/Mol_Feturizer/New_Systems/rnas/2fcx

>  <Rbt.Executable>
rbdock ($Id: //depot/dev/client3/rdock/2013.1/src/exe/rbdock.cxx#4 $)

>  <Rbt.Library>
libRbt.so (2013.1, Build901 2013/11/27)

>  <Rbt.Parameter_File>
/export/apps/rDock/src/rDock_2013.1_src/data/scripts/dock_solv.prm

>  <Rbt.Receptor>
prm/blind_docking_100.prm

>  <SCORE>
-10.8914

>  <SCORE.INTER>
-8.87995

>  <SCORE.INTER.CONST>
1

>  <SCORE.INTER.POLAR>
-0.956382

>  <SCORE.INTER.ROT>
3

>  <SCORE.INTER.SOLV>
16.6892

>  <SCORE.INTER.VDW>
-13.8951

>  <SCORE.INTER.norm>
-0.403634

>  <SCORE.INTRA>
-2.01148

>  <SCORE.INTRA.DIHEDRAL>
-4.14552

>  <SCORE.INTRA.DIHEDRAL.0>
4.88619

>  <SCORE.INTRA.POLAR>
0

>  <SCORE.INTRA.POLAR.0>
0

>  <SCORE.INTRA.REPUL>
0

>  <SCORE.INTRA.REPUL.0>
0

>  <SCORE.INTRA.SOLV>
-0.701324

>  <SCORE.INTRA.SOLV.lig_0>
-73.8187

>  <SCORE.INTRA.VDW>
0.411948

>  <SCORE.INTRA.VDW.0>
-1.32335

>  <SCORE.INTRA.norm>
-0.0914307

>  <SCORE.RESTR>
0

>  <SCORE.RESTR.CAVITY>
0

>  <SCORE.RESTR.norm>
0

>  <SCORE.SYSTEM>
0

>  <SCORE.SYSTEM.CONST>
0

>  <SCORE.SYSTEM.DIHEDRAL>
0

>  <SCORE.SYSTEM.SOLV>
0

>  <SCORE.SYSTEM.norm>
0

>  <SCORE.heavy>
22

>  <SCORE.norm>
-0.495065

>  <RMSD>
13.519

$$$$
2fcx_lig
 OpenBabel11021811433D
libRbt.so/2013.1/901 2013/11/27
 22 23  0  0  0  0  0  0  0  0999 V2000
   31.9248   -2.5608   12.4893 N   0  0  0  0  0  0  0  0  0  0  0  0
   30.7771   -2.2647    7.7280 N   0  0  0  0  0  0  0  0  0  0  0  0
   30.0252    2.3657    7.1518 N   0  0  0  0  0  0  0  0  0  0  0  0
   27.7748   -0.4134   11.0804 O   0  0  0  0  0  0  0  0  0  0  0  0
   28.6784   -1.4868   10.8033 C   0  0  2  0  0  0  0  0  0  0  0  0
   25.3494   -2.0459    7.9369 N   0  0  0  0  0  0  0  0  0  0  0  0
   29.2311   -1.7410   13.1245 O   0  0  0  0  0  0  0  0  0  0  0  0
   29.8080   -1.4985   11.8359 C   0  0  1  0  0  0  0  0  0  0  0  0
   28.1316   -1.5399    8.4307 O   0  0  0  0  0  0  0  0  0  0  0  0
   30.8241   -2.5970   11.5152 C   0  0  1  0  0  0  0  0  0  0  0  0
   27.8287    0.7405    7.9838 O   0  0  0  0  0  0  0  0  0  0  0  0
   31.3944   -2.4082   10.1054 C   0  0  0  0  0  0  0  0  0  0  0  0
   27.6686    0.2165    4.3257 O   0  0  0  0  0  0  0  0  0  0  0  0
   30.2507   -2.4472    9.0880 C   0  0  1  0  0  0  0  0  0  0  0  0
   25.3630   -1.1789    5.2016 O   0  0  0  0  0  0  0  0  0  0  0  0
   29.2062   -1.3628    9.3688 C   0  0  2  0  0  0  0  0  0  0  0  0
   27.1799   -0.4619    8.4373 C   0  0  1  0  0  0  0  0  0  0  0  0
   28.3095    0.6722    6.6262 C   0  0  2  0  0  0  0  0  0  0  0  0
   28.9498    2.0006    6.2176 C   0  0  0  0  0  0  0  0  0  0  0  0
   27.1641    0.3705    5.6559 C   0  0  2  0  0  0  0  0  0  0  0  0
   26.4710   -0.9291    6.0684 C   0  0  1  0  0  0  0  0  0  0  0  0
   25.9984   -0.7962    7.5185 C   0  0  1  0  0  0  0  0  0  0  0  0
  5  4  1  1  0  0  0
  5  8  1  0  0  0  0
  5 16  1  0  0  0  0
  8  7  1  1  0  0  0
  8 10  1  0  0  0  0
 10  1  1  1  0  0  0
 10 12  1  0  0  0  0
 11 18  1  0  0  0  0
 12 14  1  0  0  0  0
 14  2  1  6  0  0  0
 14 16  1  0  0  0  0
 16  9  1  6  0  0  0
 17  9  1  6  0  0  0
 17 11  1  0  0  0  0
 17 22  1  0  0  0  0
 18 19  1  6  0  0  0
 18 20  1  0  0  0  0
 19  3  1  0  0  0  0
 20 13  1  6  0  0  0
 20 21  1  0  0  0  0
 21 15  1  6  0  0  0
 21 22  1  0  0  0  0
 22  6  1  1  0  0  0
M  END
>  <CHROM.1>
68.99983272,65.11977325,56.09277477,28.53069967,-0.86590553,8.56480774,-1.04958606
-0.27388957,-1.06413173

>  <Name>
2fcx_lig

>  <RI>
224

>  <Rbt.Current_Directory>
/home/itssahil/PROJECTS/Mol_Feturizer/New_Systems/rnas/2fcx

>  <Rbt.Executable>
rbdock ($Id: //depot/dev/client3/rdock/2013.1/src/exe/rbdock.cxx#4 $)

>  <Rbt.Library>
libRbt.so (2013.1, Build901 2013/11/27)

>  <Rbt.Parameter_File>
/export/apps/rDock/src/rDock_2013.1_src/data/scripts/dock_solv.prm

>  <Rbt.Receptor>
prm/blind_docking_100.prm

>  <SCORE>
-10.9489

>  <SCORE.INTER>
-8.94069

>  <SCORE.INTER.CONST>
1

>  <SCORE.INTER.POLAR>
-0.980774

>  <SCORE.INTER.ROT>
3

>  <SCORE.INTER.SOLV>
16.7786

>  <SCORE.INTER.VDW>
-13.8841

>  <SCORE.INTER.norm>
-0.406395

>  <SCORE.INTRA>
-2.00821

>  <SCORE.INTRA.DIHEDRAL>
-4.29956

>  <SCORE.INTRA.DIHEDRAL.0>
4.88619

>  <SCORE.INTRA.POLAR>
0

>  <SCORE.INTRA.POLAR.0>
0

>  <SCORE.INTRA.REPUL>
0

>  <SCORE.INTRA.REPUL.0>
0

>  <SCORE.INTRA.SOLV>
-0.753089

>  <SCORE.INTRA.SOLV.lig_0>
-73.8187

>  <SCORE.INTRA.VDW>
0.518117

>  <SCORE.INTRA.VDW.0>
-1.32335

>  <SCORE.INTRA.norm>
-0.0912822

>  <SCORE.RESTR>
0

>  <SCORE.RESTR.CAVITY>
0

>  <SCORE.RESTR.norm>
0

>  <SCORE.SYSTEM>
0

>  <SCORE.SYSTEM.CONST>
0

>  <SCORE.SYSTEM.DIHEDRAL>
0

>  <SCORE.SYSTEM.SOLV>
0

>  <SCORE.SYSTEM.norm>
0

>  <SCORE.heavy>
22

>  <SCORE.norm>
-0.497677

>  <RMSD>
13.531

$$$$
2fcx_lig
 OpenBabel11021811433D
libRbt.so/2013.1/901 2013/11/27
 22 23  0  0  0  0  0  0  0  0999 V2000
   31.7615   -2.5395   12.4794 N   0  0  0  0  0  0  0  0  0  0  0  0
   30.7220   -2.1229    7.7023 N   0  0  0  0  0  0  0  0  0  0  0  0
   29.8936    2.4097    7.0814 N   0  0  0  0  0  0  0  0  0  0  0  0
   27.5724   -0.4941   11.0349 O   0  0  0  0  0  0  0  0  0  0  0  0
   28.5210   -1.5248   10.7461 C   0  0  2  0  0  0  0  0  0  0  0  0
   25.2760   -2.1057    7.8310 N   0  0  0  0  0  0  0  0  0  0  0  0
   29.0250   -1.8378   13.0712 O   0  0  0  0  0  0  0  0  0  0  0  0
   29.6243   -1.5314   11.8067 C   0  0  1  0  0  0  0  0  0  0  0  0
   28.0354   -1.5167    8.3596 O   0  0  0  0  0  0  0  0  0  0  0  0
   30.6874   -2.5817   11.4763 C   0  0  1  0  0  0  0  0  0  0  0  0
   27.6622    0.7591    7.9430 O   0  0  0  0  0  0  0  0  0  0  0  0
   31.2851   -2.3250   10.0888 C   0  0  0  0  0  0  0  0  0  0  0  0
   27.5538    0.2848    4.2763 O   0  0  0  0  0  0  0  0  0  0  0  0
   30.1691   -2.3701    9.0414 C   0  0  1  0  0  0  0  0  0  0  0  0
   25.2869   -1.1979    5.1088 O   0  0  0  0  0  0  0  0  0  0  0  0
   29.0792   -1.3335    9.3306 C   0  0  2  0  0  0  0  0  0  0  0  0
   27.0489   -0.4705    8.3725 C   0  0  1  0  0  0  0  0  0  0  0  0
   28.1578    0.7267    6.5894 C   0  0  2  0  0  0  0  0  0  0  0  0
   28.7581    2.0813    6.2066 C   0  0  0  0  0  0  0  0  0  0  0  0
   27.0321    0.4024    5.6036 C   0  0  2  0  0  0  0  0  0  0  0  0
   26.3780   -0.9251    5.9901 C   0  0  1  0  0  0  0  0  0  0  0  0
   25.8877   -0.8293    7.4373 C   0  0  1  0  0  0  0  0  0  0  0  0
  5  4  1  1  0  0  0
  5  8  1  0  0  0  0
  5 16  1  0  0  0  0
  8  7  1  1  0  0  0
  8 10  1  0  0  0  0
 10  1  1  1  0  0  0
 10 12  1  0  0  0  0
 11 18  1  0  0  0  0
 12 14  1  0  0  0  0
 14  2  1  6  0  0  0
 14 16  1  0  0  0  0
 16  9  1  6  0  0  0
 17  9  1  6  0  0  0
 17 11  1  0  0  0  0
 17 22  1  0  0  0  0
 18 19  1  6  0  0  0
 18 20  1  0  0  0  0
 19  3  1  0  0  0  0
 20 13  1  6  0  0  0
 20 21  1  0  0  0  0
 21 15  1  6  0  0  0
 21 22  1  0  0  0  0
 22  6  1  1  0  0  0
M  END
>  <CHROM.1>
69.29608760,66.38848045,61.29340209,28.39876189,-0.85213187,8.51382789,-1.05708746
-0.29404064,-1.05144696

>  <Name>
2fcx_lig

>  <RI>
2.51704e+07

>  <Rbt.Current_Directory>
/home/itssahil/PROJECTS/Mol_Feturizer/New_Systems/rnas/2fcx

>  <Rbt.Executable>
rbdock ($Id: //depot/dev/client3/rdock/2013.1/src/exe/rbdock.cxx#4 $)

>  <Rbt.Library>
libRbt.so (2013.1, Build901 2013/11/27)

>  <Rbt.Parameter_File>
/export/apps/rDock/src/rDock_2013.1_src/data/scripts/dock_solv.prm

>  <Rbt.Receptor>
prm/blind_docking_80.prm

>  <SCORE>
-10.7711

>  <SCORE.INTER>
-8.71432

>  <SCORE.INTER.CONST>
1

>  <SCORE.INTER.POLAR>
-0.860624

>  <SCORE.INTER.ROT>
3

>  <SCORE.INTER.SOLV>
16.7579

>  <SCORE.INTER.VDW>
-14.1268

>  <SCORE.INTER.norm>
-0.396105

>  <SCORE.INTRA>
-2.05683

>  <SCORE.INTRA.DIHEDRAL>
-4.2546

>  <SCORE.INTRA.DIHEDRAL.0>
4.88619

>  <SCORE.INTRA.POLAR>
0

>  <SCORE.INTRA.POLAR.0>
0

>  <SCORE.INTRA.REPUL>
0

>  <SCORE.INTRA.REPUL.0>
0

>  <SCORE.INTRA.SOLV>
-0.766399

>  <SCORE.INTRA.SOLV.lig_0>
-73.8187

>  <SCORE.INTRA.VDW>
0.453668

>  <SCORE.INTRA.VDW.0>
-1.32335

>  <SCORE.INTRA.norm>
-0.0934924

>  <SCORE.RESTR>
0

>  <SCORE.RESTR.CAVITY>
0

>  <SCORE.RESTR.norm>
0

>  <SCORE.SYSTEM>
0

>  <SCORE.SYSTEM.CONST>
0

>  <SCORE.SYSTEM.DIHEDRAL>
0

>  <SCORE.SYSTEM.SOLV>
0

>  <SCORE.SYSTEM.norm>
0

>  <SCORE.heavy>
22

>  <SCORE.norm>
-0.489598

>  <RMSD>
13.549

$$$$
2fcx_lig
 OpenBabel11021811433D
libRbt.so/2013.1/901 2013/11/27
 22 23  0  0  0  0  0  0  0  0999 V2000
   31.8980   -2.6048   12.4824 N   0  0  0  0  0  0  0  0  0  0  0  0
   30.7730   -2.2479    7.7199 N   0  0  0  0  0  0  0  0  0  0  0  0
   28.1761    3.0984    6.2305 N   0  0  0  0  0  0  0  0  0  0  0  0
   27.7933   -0.3697   11.0775 O   0  0  0  0  0  0  0  0  0  0  0  0
   28.6780   -1.4572   10.7944 C   0  0  2  0  0  0  0  0  0  0  0  0
   25.3320   -1.8862    7.9750 N   0  0  0  0  0  0  0  0  0  0  0  0
   29.2177   -1.7409   13.1153 O   0  0  0  0  0  0  0  0  0  0  0  0
   29.8035   -1.4983   11.8308 C   0  0  1  0  0  0  0  0  0  0  0  0
   28.1388   -1.4804    8.4196 O   0  0  0  0  0  0  0  0  0  0  0  0
   30.8004   -2.6126   11.5043 C   0  0  1  0  0  0  0  0  0  0  0  0
   27.9249    0.7940    7.8971 O   0  0  0  0  0  0  0  0  0  0  0  0
   31.3791   -2.4225   10.0981 C   0  0  0  0  0  0  0  0  0  0  0  0
   27.6970    0.1522    4.2615 O   0  0  0  0  0  0  0  0  0  0  0  0
   30.2385   -2.4321    9.0765 C   0  0  1  0  0  0  0  0  0  0  0  0
   25.3468   -1.1147    5.2112 O   0  0  0  0  0  0  0  0  0  0  0  0
   29.2131   -1.3310    9.3628 C   0  0  2  0  0  0  0  0  0  0  0  0
   27.2328   -0.3639    8.3994 C   0  0  1  0  0  0  0  0  0  0  0  0
   28.3853    0.6592    6.5374 C   0  0  2  0  0  0  0  0  0  0  0  0
   29.0749    1.9449    6.0757 C   0  0  0  0  0  0  0  0  0  0  0  0
   27.2162    0.3727    5.5911 C   0  0  2  0  0  0  0  0  0  0  0  0
   26.4751   -0.8820    6.0563 C   0  0  1  0  0  0  0  0  0  0  0  0
   26.0269   -0.6798    7.5061 C   0  0  1  0  0  0  0  0  0  0  0  0
  5  4  1  1  0  0  0
  5  8  1  0  0  0  0
  5 16  1  0  0  0  0
  8  7  1  1  0  0  0
  8 10  1  0  0  0  0
 10  1  1  1  0  0  0
 10 12  1  0  0  0  0
 11 18  1  0  0  0  0
 12 14  1  0  0  0  0
 14  2  1  6  0  0  0
 14 16  1  0  0  0  0
 16  9  1  6  0  0  0
 17  9  1  6  0  0  0
 17 11  1  0  0  0  0
 17 22  1  0  0  0  0
 18 19  1  6  0  0  0
 18 20  1  0  0  0  0
 19  3  1  0  0  0  0
 20 13  1  6  0  0  0
 20 21  1  0  0  0  0
 21 15  1  6  0  0  0
 21 22  1  0  0  0  0
 22  6  1  1  0  0  0
M  END
>  <CHROM.1>
71.02638920,66.58100057,-55.95886614,28.46375537,-0.80884815,8.49819104,-1.08152176
-0.17943131,-1.07952742

>  <Name>
2fcx_lig

>  <RI>
224

>  <Rbt.Current_Directory>
/home/itssahil/PROJECTS/Mol_Feturizer/New_Systems/rnas/2fcx

>  <Rbt.Executable>
rbdock ($Id: //depot/dev/client3/rdock/2013.1/src/exe/rbdock.cxx#4 $)

>  <Rbt.Library>
libRbt.so (2013.1, Build901 2013/11/27)

>  <Rbt.Parameter_File>
/export/apps/rDock/src/rDock_2013.1_src/data/scripts/dock_solv.prm

>  <Rbt.Receptor>
prm/blind_docking_100.prm

>  <SCORE>
-10.1542

>  <SCORE.INTER>
-8.8521

>  <SCORE.INTER.CONST>
1

>  <SCORE.INTER.POLAR>
-0.994924

>  <SCORE.INTER.ROT>
3

>  <SCORE.INTER.SOLV>
15.8631

>  <SCORE.INTER.VDW>
-13.4727

>  <SCORE.INTER.norm>
-0.402368

>  <SCORE.INTRA>
-1.30215

>  <SCORE.INTRA.DIHEDRAL>
-4.02594

>  <SCORE.INTRA.DIHEDRAL.0>
4.88619

>  <SCORE.INTRA.POLAR>
0

>  <SCORE.INTRA.POLAR.0>
0

>  <SCORE.INTRA.REPUL>
0

>  <SCORE.INTRA.REPUL.0>
0

>  <SCORE.INTRA.SOLV>
0.641398

>  <SCORE.INTRA.SOLV.lig_0>
-73.8187

>  <SCORE.INTRA.VDW>
0.390119

>  <SCORE.INTRA.VDW.0>
-1.32335

>  <SCORE.INTRA.norm>
-0.0591886

>  <SCORE.RESTR>
0

>  <SCORE.RESTR.CAVITY>
0

>  <SCORE.RESTR.norm>
0

>  <SCORE.SYSTEM>
0

>  <SCORE.SYSTEM.CONST>
0

>  <SCORE.SYSTEM.DIHEDRAL>
0

>  <SCORE.SYSTEM.SOLV>
0

>  <SCORE.SYSTEM.norm>
0

>  <SCORE.heavy>
22

>  <SCORE.norm>
-0.461557

>  <RMSD>
13.561

$$$$
2fcx_lig
 OpenBabel11021811433D
libRbt.so/2013.1/901 2013/11/27
 22 23  0  0  0  0  0  0  0  0999 V2000
   26.6856   -2.7138   10.2823 N   0  0  0  0  0  0  0  0  0  0  0  0
   25.8574   -1.0580    5.7384 N   0  0  0  0  0  0  0  0  0  0  0  0
   30.4422   -0.1190    4.7885 N   0  0  0  0  0  0  0  0  0  0  0  0
   28.3074    1.6847    8.9252 O   0  0  0  0  0  0  0  0  0  0  0  0
   27.2327    0.7509    8.7886 C   0  0  2  0  0  0  0  0  0  0  0  0
   25.9275    4.2932    6.1573 N   0  0  0  0  0  0  0  0  0  0  0  0
   27.5292   -0.0564   11.0288 O   0  0  0  0  0  0  0  0  0  0  0  0
   27.4954   -0.4792    9.6605 C   0  0  1  0  0  0  0  0  0  0  0  0
   26.6256    1.5388    6.5655 O   0  0  0  0  0  0  0  0  0  0  0  0
   26.3905   -1.5216    9.4742 C   0  0  1  0  0  0  0  0  0  0  0  0
   28.8056    1.9462    5.8083 O   0  0  0  0  0  0  0  0  0  0  0  0
   26.2768   -1.9284    8.0011 C   0  0  0  0  0  0  0  0  0  0  0  0
   27.7730    2.0721    2.2587 O   0  0  0  0  0  0  0  0  0  0  0  0
   25.9676   -0.6890    7.1568 C   0  0  1  0  0  0  0  0  0  0  0  0
   26.4070    4.3127    3.3281 O   0  0  0  0  0  0  0  0  0  0  0  0
   27.0487    0.3848    7.3107 C   0  0  2  0  0  0  0  0  0  0  0  0
   27.6488    2.5396    6.4264 C   0  0  1  0  0  0  0  0  0  0  0  0
   28.5722    1.4592    4.4714 C   0  0  2  0  0  0  0  0  0  0  0  0
   29.8595    0.8801    3.8803 C   0  0  0  0  0  0  0  0  0  0  0  0
   28.0863    2.5867    3.5566 C   0  0  2  0  0  0  0  0  0  0  0  0
   26.8255    3.2197    4.1478 C   0  0  1  0  0  0  0  0  0  0  0  0
   27.1360    3.7019    5.5673 C   0  0  1  0  0  0  0  0  0  0  0  0
  5  4  1  6  0  0  0
  5  8  1  0  0  0  0
  5 16  1  0  0  0  0
  8  7  1  1  0  0  0
  8 10  1  0  0  0  0
 10  1  1  1  0  0  0
 10 12  1  0  0  0  0
 11 18  1  0  0  0  0
 12 14  1  0  0  0  0
 14  2  1  6  0  0  0
 14 16  1  0  0  0  0
 16  9  1  6  0  0  0
 17  9  1  6  0  0  0
 17 11  1  0  0  0  0
 17 22  1  0  0  0  0
 18 19  1  6  0  0  0
 18 20  1  0  0  0  0
 19  3  1  0  0  0  0
 20 13  1  6  0  0  0
 20 21  1  0  0  0  0
 21 15  1  6  0  0  0
 21 22  1  0  0  0  0
 22  6  1  1  0  0  0
M  END
>  <CHROM.1>
69.93940911,56.73869885,52.79088140,27.41643097,1.06526116,6.50254762,-1.80707048
1.07288745,-0.76514208

>  <Name>
2fcx_lig

>  <RI>
2.63278e+07

>  <Rbt.Current_Directory>
/home/itssahil/PROJECTS/Mol_Feturizer/New_Systems/rnas/2fcx

>  <Rbt.Executable>
rbdock ($Id: //depot/dev/client3/rdock/2013.1/src/exe/rbdock.cxx#4 $)

>  <Rbt.Library>
libRbt.so (2013.1, Build901 2013/11/27)

>  <Rbt.Parameter_File>
/export/apps/rDock/src/rDock_2013.1_src/data/scripts/dock_solv.prm

>  <Rbt.Receptor>
prm/blind_docking_40.prm

>  <SCORE>
-13.3252

>  <SCORE.INTER>
-11.4199

>  <SCORE.INTER.CONST>
1

>  <SCORE.INTER.POLAR>
-0.86969

>  <SCORE.INTER.ROT>
3

>  <SCORE.INTER.SOLV>
11.5104

>  <SCORE.INTER.VDW>
-14.1511

>  <SCORE.INTER.norm>
-0.519087

>  <SCORE.INTRA>
-1.9053

>  <SCORE.INTRA.DIHEDRAL>
-4.15933

>  <SCORE.INTRA.DIHEDRAL.0>
4.88619

>  <SCORE.INTRA.POLAR>
0

>  <SCORE.INTRA.POLAR.0>
0

>  <SCORE.INTRA.REPUL>
0

>  <SCORE.INTRA.REPUL.0>
0

>  <SCORE.INTRA.SOLV>
-0.664864

>  <SCORE.INTRA.SOLV.lig_0>
-73.8187

>  <SCORE.INTRA.VDW>
0.506799

>  <SCORE.INTRA.VDW.0>
-1.32335

>  <SCORE.INTRA.norm>
-0.0866044

>  <SCORE.RESTR>
0

>  <SCORE.RESTR.CAVITY>
0

>  <SCORE.RESTR.norm>
0

>  <SCORE.SYSTEM>
0

>  <SCORE.SYSTEM.CONST>
0

>  <SCORE.SYSTEM.DIHEDRAL>
0

>  <SCORE.SYSTEM.SOLV>
0

>  <SCORE.SYSTEM.norm>
0

>  <SCORE.heavy>
22

>  <SCORE.norm>
-0.605692

>  <RMSD>
13.594

$$$$
2fcx_lig
 OpenBabel11021811433D
libRbt.so/2013.1/901 2013/11/27
 22 23  0  0  0  0  0  0  0  0999 V2000
   26.6513   -2.7465   10.4457 N   0  0  0  0  0  0  0  0  0  0  0  0
   26.0869   -1.2914    5.7940 N   0  0  0  0  0  0  0  0  0  0  0  0
   31.4234    1.3145    4.2606 N   0  0  0  0  0  0  0  0  0  0  0  0
   28.4903    1.5214    8.9550 O   0  0  0  0  0  0  0  0  0  0  0  0
   27.3896    0.6191    8.8139 C   0  0  2  0  0  0  0  0  0  0  0  0
   26.3337    4.0509    5.8771 N   0  0  0  0  0  0  0  0  0  0  0  0
   27.5567   -0.0854   11.1017 O   0  0  0  0  0  0  0  0  0  0  0  0
   27.5685   -0.5743    9.7553 C   0  0  1  0  0  0  0  0  0  0  0  0
   26.9111    1.3157    6.5299 O   0  0  0  0  0  0  0  0  0  0  0  0
   26.4359   -1.5865    9.5684 C   0  0  1  0  0  0  0  0  0  0  0  0
   29.1507    1.6061    5.9040 O   0  0  0  0  0  0  0  0  0  0  0  0
   26.3733   -2.0620    8.1130 C   0  0  0  0  0  0  0  0  0  0  0  0
   28.3726    1.4994    2.2895 O   0  0  0  0  0  0  0  0  0  0  0  0
   26.1471   -0.8563    7.1965 C   0  0  1  0  0  0  0  0  0  0  0  0
   27.0094    3.8493    3.0956 O   0  0  0  0  0  0  0  0  0  0  0  0
   27.2585    0.1865    7.3485 C   0  0  2  0  0  0  0  0  0  0  0  0
   27.9737    2.2749    6.3936 C   0  0  1  0  0  0  0  0  0  0  0  0
   28.9952    1.0288    4.5920 C   0  0  2  0  0  0  0  0  0  0  0  0
   30.3009    0.3726    4.1377 C   0  0  0  0  0  0  0  0  0  0  0  0
   28.6113    2.0991    3.5666 C   0  0  2  0  0  0  0  0  0  0  0  0
   27.3339    2.8084    4.0190 C   0  0  1  0  0  0  0  0  0  0  0  0
   27.5604    3.3847    5.4192 C   0  0  1  0  0  0  0  0  0  0  0  0
  5  4  1  6  0  0  0
  5  8  1  0  0  0  0
  5 16  1  0  0  0  0
  8  7  1  1  0  0  0
  8 10  1  0  0  0  0
 10  1  1  1  0  0  0
 10 12  1  0  0  0  0
 11 18  1  0  0  0  0
 12 14  1  0  0  0  0
 14  2  1  6  0  0  0
 14 16  1  0  0  0  0
 16  9  1  6  0  0  0
 17  9  1  6  0  0  0
 17 11  1  0  0  0  0
 17 22  1  0  0  0  0
 18 19  1  6  0  0  0
 18 20  1  0  0  0  0
 19  3  1  0  0  0  0
 20 13  1  6  0  0  0
 20 21  1  0  0  0  0
 21 15  1  6  0  0  0
 21 22  1  0  0  0  0
 22  6  1  1  0  0  0
M  END
>  <CHROM.1>
69.75793305,54.81265334,-52.15952531,27.73800369,0.87786304,6.49538520,-1.96339020
0.97196074,-0.70025073

>  <Name>
2fcx_lig

>  <RI>
224

>  <Rbt.Current_Directory>
/home/itssahil/PROJECTS/Mol_Feturizer/New_Systems/rnas/2fcx

>  <Rbt.Executable>
rbdock ($Id: //depot/dev/client3/rdock/2013.1/src/exe/rbdock.cxx#4 $)

>  <Rbt.Library>
libRbt.so (2013.1, Build901 2013/11/27)

>  <Rbt.Parameter_File>
/export/apps/rDock/src/rDock_2013.1_src/data/scripts/dock_solv.prm

>  <Rbt.Receptor>
prm/blind_docking_100.prm

>  <SCORE>
-12.046

>  <SCORE.INTER>
-10.8053

>  <SCORE.INTER.CONST>
1

>  <SCORE.INTER.POLAR>
-0.894884

>  <SCORE.INTER.ROT>
3

>  <SCORE.INTER.SOLV>
14.651

>  <SCORE.INTER.VDW>
-14.7043

>  <SCORE.INTER.norm>
-0.491152

>  <SCORE.INTRA>
-1.2407

>  <SCORE.INTRA.DIHEDRAL>
-4.07119

>  <SCORE.INTRA.DIHEDRAL.0>
4.88619

>  <SCORE.INTRA.POLAR>
0

>  <SCORE.INTRA.POLAR.0>
0

>  <SCORE.INTRA.REPUL>
0

>  <SCORE.INTRA.REPUL.0>
0

>  <SCORE.INTRA.SOLV>
0.431526

>  <SCORE.INTRA.SOLV.lig_0>
-73.8187

>  <SCORE.INTRA.VDW>
0.579125

>  <SCORE.INTRA.VDW.0>
-1.32335

>  <SCORE.INTRA.norm>
-0.0563957

>  <SCORE.RESTR>
0

>  <SCORE.RESTR.CAVITY>
0

>  <SCORE.RESTR.norm>
0

>  <SCORE.SYSTEM>
0

>  <SCORE.SYSTEM.CONST>
0

>  <SCORE.SYSTEM.DIHEDRAL>
0

>  <SCORE.SYSTEM.SOLV>
0

>  <SCORE.SYSTEM.norm>
0

>  <SCORE.heavy>
22

>  <SCORE.norm>
-0.547548

>  <RMSD>
13.721

$$$$
2fcx_lig
 OpenBabel11021811433D
libRbt.so/2013.1/901 2013/11/27
 22 23  0  0  0  0  0  0  0  0999 V2000
   26.7344   -2.5487   10.3914 N   0  0  0  0  0  0  0  0  0  0  0  0
   25.9801   -1.2705    5.7147 N   0  0  0  0  0  0  0  0  0  0  0  0
   30.5805    0.0812    3.3001 N   0  0  0  0  0  0  0  0  0  0  0  0
   28.2852    1.7715    8.7334 O   0  0  0  0  0  0  0  0  0  0  0  0
   27.2365    0.8031    8.6454 C   0  0  2  0  0  0  0  0  0  0  0  0
   25.8193    3.9902    5.4487 N   0  0  0  0  0  0  0  0  0  0  0  0
   27.4965    0.1791   10.9478 O   0  0  0  0  0  0  0  0  0  0  0  0
   27.5065   -0.3489    9.6162 C   0  0  1  0  0  0  0  0  0  0  0  0
   26.6662    1.4011    6.3545 O   0  0  0  0  0  0  0  0  0  0  0  0
   26.4313   -1.4303    9.4864 C   0  0  1  0  0  0  0  0  0  0  0  0
   28.9122    1.9906    6.0393 O   0  0  0  0  0  0  0  0  0  0  0  0
   26.3637   -1.9526    8.0473 C   0  0  0  0  0  0  0  0  0  0  0  0
   28.7134    1.6123    2.3652 O   0  0  0  0  0  0  0  0  0  0  0  0
   26.0464   -0.7903    7.1022 C   0  0  1  0  0  0  0  0  0  0  0  0
   26.9302    3.7688    2.8122 O   0  0  0  0  0  0  0  0  0  0  0  0
   27.0978    0.3193    7.1967 C   0  0  2  0  0  0  0  0  0  0  0  0
   27.5931    2.4996    6.3101 C   0  0  1  0  0  0  0  0  0  0  0  0
   29.0393    1.3398    4.7590 C   0  0  2  0  0  0  0  0  0  0  0  0
   30.4772    0.8639    4.5407 C   0  0  0  0  0  0  0  0  0  0  0  0
   28.6700    2.2959    3.6215 C   0  0  2  0  0  0  0  0  0  0  0  0
   27.2527    2.8284    3.8385 C   0  0  1  0  0  0  0  0  0  0  0  0
   27.1819    3.4925    5.2162 C   0  0  1  0  0  0  0  0  0  0  0  0
  5  4  1  6  0  0  0
  5  8  1  0  0  0  0
  5 16  1  0  0  0  0
  8  7  1  1  0  0  0
  8 10  1  0  0  0  0
 10  1  1  1  0  0  0
 10 12  1  0  0  0  0
 11 18  1  0  0  0  0
 12 14  1  0  0  0  0
 14  2  1  6  0  0  0
 14 16  1  0  0  0  0
 16  9  1  6  0  0  0
 17  9  1  6  0  0  0
 17 11  1  0  0  0  0
 17 22  1  0  0  0  0
 18 19  1  6  0  0  0
 18 20  1  0  0  0  0
 19  3  1  0  0  0  0
 20 13  1  6  0  0  0
 20 21  1  0  0  0  0
 21 15  1  6  0  0  0
 21 22  1  0  0  0  0
 22  6  1  1  0  0  0
M  END
>  <CHROM.1>
61.77996794,49.61502357,174.24962826,27.60693357,0.97708451,6.37280559,-1.92463260
0.95032373,-0.76233666

>  <Name>
2fcx_lig

>  <RI>
2.51704e+07

>  <Rbt.Current_Directory>
/home/itssahil/PROJECTS/Mol_Feturizer/New_Systems/rnas/2fcx

>  <Rbt.Executable>
rbdock ($Id: //depot/dev/client3/rdock/2013.1/src/exe/rbdock.cxx#4 $)

>  <Rbt.Library>
libRbt.so (2013.1, Build901 2013/11/27)

>  <Rbt.Parameter_File>
/export/apps/rDock/src/rDock_2013.1_src/data/scripts/dock_solv.prm

>  <Rbt.Receptor>
prm/blind_docking_80.prm

>  <SCORE>
-10.7466

>  <SCORE.INTER>
-10.6578

>  <SCORE.INTER.CONST>
1

>  <SCORE.INTER.POLAR>
-0.822007

>  <SCORE.INTER.ROT>
3

>  <SCORE.INTER.SOLV>
13.7597

>  <SCORE.INTER.VDW>
-14.5518

>  <SCORE.INTER.norm>
-0.484448

>  <SCORE.INTRA>
-0.0887874

>  <SCORE.INTRA.DIHEDRAL>
-4.22124

>  <SCORE.INTRA.DIHEDRAL.0>
4.88619

>  <SCORE.INTRA.POLAR>
0

>  <SCORE.INTRA.POLAR.0>
0

>  <SCORE.INTRA.REPUL>
0

>  <SCORE.INTRA.REPUL.0>
0

>  <SCORE.INTRA.SOLV>
0.197393

>  <SCORE.INTRA.SOLV.lig_0>
-73.8187

>  <SCORE.INTRA.VDW>
1.92314

>  <SCORE.INTRA.VDW.0>
-1.32335

>  <SCORE.INTRA.norm>
-0.00403579

>  <SCORE.RESTR>
0

>  <SCORE.RESTR.CAVITY>
0

>  <SCORE.RESTR.norm>
0

>  <SCORE.SYSTEM>
0

>  <SCORE.SYSTEM.CONST>
0

>  <SCORE.SYSTEM.DIHEDRAL>
0

>  <SCORE.SYSTEM.SOLV>
0

>  <SCORE.SYSTEM.norm>
0

>  <SCORE.heavy>
22

>  <SCORE.norm>
-0.488483

>  <RMSD>
13.722

$$$$
2fcx_lig
 OpenBabel11021811433D
libRbt.so/2013.1/901 2013/11/27
 22 23  0  0  0  0  0  0  0  0999 V2000
   26.5990   -2.6903   10.3782 N   0  0  0  0  0  0  0  0  0  0  0  0
   25.9981   -1.2388    5.7299 N   0  0  0  0  0  0  0  0  0  0  0  0
   31.3854    1.3290    4.2617 N   0  0  0  0  0  0  0  0  0  0  0  0
   28.4485    1.5644    8.8632 O   0  0  0  0  0  0  0  0  0  0  0  0
   27.3412    0.6685    8.7342 C   0  0  2  0  0  0  0  0  0  0  0  0
   26.2708    4.0898    5.7580 N   0  0  0  0  0  0  0  0  0  0  0  0
   27.5263   -0.0337   11.0213 O   0  0  0  0  0  0  0  0  0  0  0  0
   27.5222   -0.5246    9.6756 C   0  0  1  0  0  0  0  0  0  0  0  0
   26.8446    1.3645    6.4538 O   0  0  0  0  0  0  0  0  0  0  0  0
   26.3819   -1.5304    9.5012 C   0  0  1  0  0  0  0  0  0  0  0  0
   29.0904    1.6494    5.8477 O   0  0  0  0  0  0  0  0  0  0  0  0
   26.3024   -2.0077    8.0472 C   0  0  0  0  0  0  0  0  0  0  0  0
   28.3506    1.4928    2.2270 O   0  0  0  0  0  0  0  0  0  0  0  0
   26.0744   -0.8020    7.1312 C   0  0  1  0  0  0  0  0  0  0  0  0
   26.9762    3.8515    2.9867 O   0  0  0  0  0  0  0  0  0  0  0  0
   27.1933    0.2344    7.2707 C   0  0  2  0  0  0  0  0  0  0  0  0
   27.9074    2.3232    6.3158 C   0  0  1  0  0  0  0  0  0  0  0  0
   28.9495    1.0542    4.5421 C   0  0  2  0  0  0  0  0  0  0  0  0
   30.2607    0.3938    4.1105 C   0  0  0  0  0  0  0  0  0  0  0  0
   28.5751    2.1100    3.4983 C   0  0  2  0  0  0  0  0  0  0  0  0
   27.2921    2.8236    3.9275 C   0  0  1  0  0  0  0  0  0  0  0  0
   27.5030    3.4191    5.3221 C   0  0  1  0  0  0  0  0  0  0  0  0
  5  4  1  6  0  0  0
  5  8  1  0  0  0  0
  5 16  1  0  0  0  0
  8  7  1  1  0  0  0
  8 10  1  0  0  0  0
 10  1  1  1  0  0  0
 10 12  1  0  0  0  0
 11 18  1  0  0  0  0
 12 14  1  0  0  0  0
 14  2  1  6  0  0  0
 14 16  1  0  0  0  0
 16  9  1  6  0  0  0
 17  9  1  6  0  0  0
 17 11  1  0  0  0  0
 17 22  1  0  0  0  0
 18 19  1  6  0  0  0
 18 20  1  0  0  0  0
 19  3  1  0  0  0  0
 20 13  1  6  0  0  0
 20 21  1  0  0  0  0
 21 15  1  6  0  0  0
 21 22  1  0  0  0  0
 22  6  1  1  0  0  0
M  END
>  <CHROM.1>
69.22035183,53.70480443,-50.86676228,27.68653278,0.91443627,6.42371322,-1.93877724
0.92672387,-0.73359955

>  <Name>
2fcx_lig

>  <RI>
224

>  <Rbt.Current_Directory>
/home/itssahil/PROJECTS/Mol_Feturizer/New_Systems/rnas/2fcx

>  <Rbt.Executable>
rbdock ($Id: //depot/dev/client3/rdock/2013.1/src/exe/rbdock.cxx#4 $)

>  <Rbt.Library>
libRbt.so (2013.1, Build901 2013/11/27)

>  <Rbt.Parameter_File>
/export/apps/rDock/src/rDock_2013.1_src/data/scripts/dock_solv.prm

>  <Rbt.Receptor>
prm/blind_docking_60.prm

>  <SCORE>
-11.9517

>  <SCORE.INTER>
-10.8074

>  <SCORE.INTER.CONST>
1

>  <SCORE.INTER.POLAR>
-0.866444

>  <SCORE.INTER.ROT>
3

>  <SCORE.INTER.SOLV>
14.8725

>  <SCORE.INTER.VDW>
-14.8743

>  <SCORE.INTER.norm>
-0.491243

>  <SCORE.INTRA>
-1.14432

>  <SCORE.INTRA.DIHEDRAL>
-3.9817

>  <SCORE.INTRA.DIHEDRAL.0>
4.88619

>  <SCORE.INTRA.POLAR>
0

>  <SCORE.INTRA.POLAR.0>
0

>  <SCORE.INTRA.REPUL>
0

>  <SCORE.INTRA.REPUL.0>
0

>  <SCORE.INTRA.SOLV>
0.404595

>  <SCORE.INTRA.SOLV.lig_0>
-73.8187

>  <SCORE.INTRA.VDW>
0.644235

>  <SCORE.INTRA.VDW.0>
-1.32335

>  <SCORE.INTRA.norm>
-0.0520145

>  <SCORE.RESTR>
0

>  <SCORE.RESTR.CAVITY>
0

>  <SCORE.RESTR.norm>
0

>  <SCORE.SYSTEM>
0

>  <SCORE.SYSTEM.CONST>
0

>  <SCORE.SYSTEM.DIHEDRAL>
0

>  <SCORE.SYSTEM.SOLV>
0

>  <SCORE.SYSTEM.norm>
0

>  <SCORE.heavy>
22

>  <SCORE.norm>
-0.543258

>  <RMSD>
13.740

$$$$
2fcx_lig
 OpenBabel11021811433D
libRbt.so/2013.1/901 2013/11/27
 22 23  0  0  0  0  0  0  0  0999 V2000
   24.9353    3.0663    5.7508 N   0  0  0  0  0  0  0  0  0  0  0  0
   29.6827    1.8644    5.4461 N   0  0  0  0  0  0  0  0  0  0  0  0
   32.0902   -1.6765    3.9725 N   0  0  0  0  0  0  0  0  0  0  0  0
   26.4920   -1.2678    7.3667 O   0  0  0  0  0  0  0  0  0  0  0  0
   26.8280    0.1178    7.2537 C   0  0  2  0  0  0  0  0  0  0  0  0
   28.7768   -1.8707    9.5692 N   0  0  0  0  0  0  0  0  0  0  0  0
   24.5337    0.7854    7.4733 O   0  0  0  0  0  0  0  0  0  0  0  0
   25.6714    0.8849    6.6087 C   0  0  1  0  0  0  0  0  0  0  0  0
   29.2253   -0.3088    7.2028 O   0  0  0  0  0  0  0  0  0  0  0  0
   26.0394    2.3577    6.4146 C   0  0  1  0  0  0  0  0  0  0  0  0
   30.1827   -2.1570    6.1261 O   0  0  0  0  0  0  0  0  0  0  0  0
   27.3056    2.4886    5.5615 C   0  0  0  0  0  0  0  0  0  0  0  0
   33.3640   -1.8586    7.9893 O   0  0  0  0  0  0  0  0  0  0  0  0
   28.4581    1.7531    6.2511 C   0  0  1  0  0  0  0  0  0  0  0  0
   31.5395   -2.4615   10.0721 O   0  0  0  0  0  0  0  0  0  0  0  0
   28.1354    0.2716    6.4669 C   0  0  2  0  0  0  0  0  0  0  0  0
   29.2552   -1.7454    7.1473 C   0  0  1  0  0  0  0  0  0  0  0  0
   31.5464   -1.7622    6.3776 C   0  0  2  0  0  0  0  0  0  0  0  0
   32.4650   -2.2708    5.2643 C   0  0  0  0  0  0  0  0  0  0  0  0
   32.0427   -2.3313    7.7096 C   0  0  2  0  0  0  0  0  0  0  0  0
   31.1140   -1.8801    8.8382 C   0  0  1  0  0  0  0  0  0  0  0  0
   29.6851   -2.3165    8.5040 C   0  0  1  0  0  0  0  0  0  0  0  0
  5  4  1  6  0  0  0
  5  8  1  0  0  0  0
  5 16  1  0  0  0  0
  8  7  1  1  0  0  0
  8 10  1  0  0  0  0
 10  1  1  6  0  0  0
 10 12  1  0  0  0  0
 11 18  1  0  0  0  0
 12 14  1  0  0  0  0
 14  2  1  6  0  0  0
 14 16  1  0  0  0  0
 16  9  1  1  0  0  0
 17  9  1  1  0  0  0
 17 11  1  0  0  0  0
 17 22  1  0  0  0  0
 18 19  1  6  0  0  0
 18 20  1  0  0  0  0
 19  3  1  0  0  0  0
 20 13  1  1  0  0  0
 20 21  1  0  0  0  0
 21 15  1  1  0  0  0
 21 22  1  0  0  0  0
 22  6  1  1  0  0  0
M  END
>  <CHROM.1>
76.58686015,97.32175980,62.36871127,29.07437781,-0.49764298,6.99336810,-2.71301208
-0.40837522,2.17768368

>  <Name>
2fcx_lig

>  <RI>
224

>  <Rbt.Current_Directory>
/home/itssahil/PROJECTS/Mol_Feturizer/New_Systems/rnas/2fcx

>  <Rbt.Executable>
rbdock ($Id: //depot/dev/client3/rdock/2013.1/src/exe/rbdock.cxx#4 $)

>  <Rbt.Library>
libRbt.so (2013.1, Build901 2013/11/27)

>  <Rbt.Parameter_File>
/export/apps/rDock/src/rDock_2013.1_src/data/scripts/dock_solv.prm

>  <Rbt.Receptor>
prm/blind_docking_100.prm

>  <SCORE>
-7.75586

>  <SCORE.INTER>
-8.47612

>  <SCORE.INTER.CONST>
1

>  <SCORE.INTER.POLAR>
-0.938083

>  <SCORE.INTER.ROT>
3

>  <SCORE.INTER.SOLV>
7.54126

>  <SCORE.INTER.VDW>
-10.6376

>  <SCORE.INTER.norm>
-0.385278

>  <SCORE.INTRA>
0.720266

>  <SCORE.INTRA.DIHEDRAL>
1.36035

>  <SCORE.INTRA.DIHEDRAL.0>
4.88619

>  <SCORE.INTRA.POLAR>
0

>  <SCORE.INTRA.POLAR.0>
0

>  <SCORE.INTRA.REPUL>
0

>  <SCORE.INTRA.REPUL.0>
0

>  <SCORE.INTRA.SOLV>
0.309159

>  <SCORE.INTRA.SOLV.lig_0>
-73.8187

>  <SCORE.INTRA.VDW>
-0.114487

>  <SCORE.INTRA.VDW.0>
-1.32335

>  <SCORE.INTRA.norm>
0.0327394

>  <SCORE.RESTR>
0

>  <SCORE.RESTR.CAVITY>
0

>  <SCORE.RESTR.norm>
0

>  <SCORE.SYSTEM>
0

>  <SCORE.SYSTEM.CONST>
0

>  <SCORE.SYSTEM.DIHEDRAL>
0

>  <SCORE.SYSTEM.SOLV>
0

>  <SCORE.SYSTEM.norm>
0

>  <SCORE.heavy>
22

>  <SCORE.norm>
-0.352539

>  <RMSD>
13.741

$$$$
2fcx_lig
 OpenBabel11021811433D
libRbt.so/2013.1/901 2013/11/27
 22 23  0  0  0  0  0  0  0  0999 V2000
   34.1828   -2.9074    6.2370 N   0  0  0  0  0  0  0  0  0  0  0  0
   30.7935   -0.1934    3.9519 N   0  0  0  0  0  0  0  0  0  0  0  0
   27.8242   -0.5345   11.1511 N   0  0  0  0  0  0  0  0  0  0  0  0
   30.8296   -0.4674    8.8103 O   0  0  0  0  0  0  0  0  0  0  0  0
   31.0575   -1.2080    7.6081 C   0  0  2  0  0  0  0  0  0  0  0  0
   27.0594   -0.2059    4.6169 N   0  0  0  0  0  0  0  0  0  0  0  0
   32.6709   -2.6248    8.6795 O   0  0  0  0  0  0  0  0  0  0  0  0
   32.4977   -1.7251    7.5783 C   0  0  1  0  0  0  0  0  0  0  0  0
   29.3268   -0.0255    6.3682 O   0  0  0  0  0  0  0  0  0  0  0  0
   32.7823   -2.4608    6.2668 C   0  0  1  0  0  0  0  0  0  0  0  0
   28.4650   -1.7409    7.7123 O   0  0  0  0  0  0  0  0  0  0  0  0
   32.5218   -1.5435    5.0672 C   0  0  0  0  0  0  0  0  0  0  0  0
   25.9582    0.4724    9.2930 O   0  0  0  0  0  0  0  0  0  0  0  0
   31.0633   -1.0779    5.0942 C   0  0  1  0  0  0  0  0  0  0  0  0
   25.0927    0.4689    6.5946 O   0  0  0  0  0  0  0  0  0  0  0  0
   30.7305   -0.3342    6.3911 C   0  0  2  0  0  0  0  0  0  0  0  0
   28.4825   -1.1894    6.3826 C   0  0  1  0  0  0  0  0  0  0  0  0
   27.9061   -0.8589    8.7066 C   0  0  2  0  0  0  0  0  0  0  0  0
   27.8940   -1.5376   10.0781 C   0  0  0  0  0  0  0  0  0  0  0  0
   26.4688   -0.4724    8.3473 C   0  0  2  0  0  0  0  0  0  0  0  0
   26.4410    0.1651    6.9572 C   0  0  1  0  0  0  0  0  0  0  0  0
   27.0587   -0.8132    5.9546 C   0  0  1  0  0  0  0  0  0  0  0  0
  5  4  1  1  0  0  0
  5  8  1  0  0  0  0
  5 16  1  0  0  0  0
  8  7  1  1  0  0  0
  8 10  1  0  0  0  0
 10  1  1  1  0  0  0
 10 12  1  0  0  0  0
 11 18  1  0  0  0  0
 12 14  1  0  0  0  0
 14  2  1  6  0  0  0
 14 16  1  0  0  0  0
 16  9  1  6  0  0  0
 17  9  1  1  0  0  0
 17 11  1  0  0  0  0
 17 22  1  0  0  0  0
 18 19  1  1  0  0  0
 18 20  1  0  0  0  0
 19  3  1  0  0  0  0
 20 13  1  1  0  0  0
 20 21  1  0  0  0  0
 21 15  1  6  0  0  0
 21 22  1  0  0  0  0
 22  6  1  6  0  0  0
M  END
>  <CHROM.1>
-56.03462592,75.59886321,158.47803898,29.38635319,-0.93324934,7.21107268
-0.20527424,-0.30387718,1.70992239

>  <Name>
2fcx_lig

>  <RI>
224

>  <Rbt.Current_Directory>
/home/itssahil/PROJECTS/Mol_Feturizer/New_Systems/rnas/2fcx

>  <Rbt.Executable>
rbdock ($Id: //depot/dev/client3/rdock/2013.1/src/exe/rbdock.cxx#4 $)

>  <Rbt.Library>
libRbt.so (2013.1, Build901 2013/11/27)

>  <Rbt.Parameter_File>
/export/apps/rDock/src/rDock_2013.1_src/data/scripts/dock_solv.prm

>  <Rbt.Receptor>
prm/blind_docking_100.prm

>  <SCORE>
-10.8942

>  <SCORE.INTER>
-12.2401

>  <SCORE.INTER.CONST>
1

>  <SCORE.INTER.POLAR>
-1.65009

>  <SCORE.INTER.ROT>
3

>  <SCORE.INTER.SOLV>
14.7847

>  <SCORE.INTER.VDW>
-13.188

>  <SCORE.INTER.norm>
-0.556367

>  <SCORE.INTRA>
1.34585

>  <SCORE.INTRA.DIHEDRAL>
-2.15338

>  <SCORE.INTRA.DIHEDRAL.0>
4.88619

>  <SCORE.INTRA.POLAR>
0

>  <SCORE.INTRA.POLAR.0>
0

>  <SCORE.INTRA.REPUL>
0

>  <SCORE.INTRA.REPUL.0>
0

>  <SCORE.INTRA.SOLV>
1.93007

>  <SCORE.INTRA.SOLV.lig_0>
-73.8187

>  <SCORE.INTRA.VDW>
1.4575

>  <SCORE.INTRA.VDW.0>
-1.32335

>  <SCORE.INTRA.norm>
0.0611748

>  <SCORE.RESTR>
0

>  <SCORE.RESTR.CAVITY>
0

>  <SCORE.RESTR.norm>
0

>  <SCORE.SYSTEM>
0

>  <SCORE.SYSTEM.CONST>
0

>  <SCORE.SYSTEM.DIHEDRAL>
0

>  <SCORE.SYSTEM.SOLV>
0

>  <SCORE.SYSTEM.norm>
0

>  <SCORE.heavy>
22

>  <SCORE.norm>
-0.495192

>  <RMSD>
13.764

$$$$
2fcx_lig
 OpenBabel11021811433D
libRbt.so/2013.1/901 2013/11/27
 22 23  0  0  0  0  0  0  0  0999 V2000
   34.2897   -2.4619    4.3785 N   0  0  0  0  0  0  0  0  0  0  0  0
   30.5727    0.6542    5.1191 N   0  0  0  0  0  0  0  0  0  0  0  0
   25.4500   -0.5124    5.6849 N   0  0  0  0  0  0  0  0  0  0  0  0
   31.6516   -2.6978    8.4777 O   0  0  0  0  0  0  0  0  0  0  0  0
   31.5904   -2.4478    7.0708 C   0  0  2  0  0  0  0  0  0  0  0  0
   30.6120    0.6131    9.4690 N   0  0  0  0  0  0  0  0  0  0  0  0
   33.3524   -4.0143    6.6241 O   0  0  0  0  0  0  0  0  0  0  0  0
   32.9730   -2.6446    6.4447 C   0  0  1  0  0  0  0  0  0  0  0  0
   29.6701   -0.9621    7.2617 O   0  0  0  0  0  0  0  0  0  0  0  0
   32.9436   -2.3132    4.9509 C   0  0  1  0  0  0  0  0  0  0  0  0
   27.8544    0.4884    6.9604 O   0  0  0  0  0  0  0  0  0  0  0  0
   32.4584   -0.8770    4.7273 C   0  0  0  0  0  0  0  0  0  0  0  0
   26.0121   -0.8784    9.8620 O   0  0  0  0  0  0  0  0  0  0  0  0
   31.0556   -0.7192    5.3208 C   0  0  1  0  0  0  0  0  0  0  0  0
   28.2894    0.2506   11.1148 O   0  0  0  0  0  0  0  0  0  0  0  0
   31.0350   -1.0408    6.8180 C   0  0  2  0  0  0  0  0  0  0  0  0
   29.2042    0.3852    7.4500 C   0  0  1  0  0  0  0  0  0  0  0  0
   26.9083   -0.3386    7.6675 C   0  0  2  0  0  0  0  0  0  0  0  0
   25.4987   -0.1391    7.1064 C   0  0  0  0  0  0  0  0  0  0  0  0
   26.8872    0.0087    9.1586 C   0  0  2  0  0  0  0  0  0  0  0  0
   28.2954   -0.1336    9.7386 C   0  0  1  0  0  0  0  0  0  0  0  0
   29.2499    0.7558    8.9374 C   0  0  1  0  0  0  0  0  0  0  0  0
  5  4  1  1  0  0  0
  5  8  1  0  0  0  0
  5 16  1  0  0  0  0
  8  7  1  6  0  0  0
  8 10  1  0  0  0  0
 10  1  1  1  0  0  0
 10 12  1  0  0  0  0
 11 18  1  0  0  0  0
 12 14  1  0  0  0  0
 14  2  1  1  0  0  0
 14 16  1  0  0  0  0
 16  9  1  6  0  0  0
 17  9  1  1  0  0  0
 17 11  1  0  0  0  0
 17 22  1  0  0  0  0
 18 19  1  6  0  0  0
 18 20  1  0  0  0  0
 19  3  1  0  0  0  0
 20 13  1  1  0  0  0
 20 21  1  0  0  0  0
 21 15  1  1  0  0  0
 21 22  1  0  0  0  0
 22  6  1  1  0  0  0
M  END
>  <CHROM.1>
161.85097180,139.50429029,60.64723308,29.79189165,-0.88208567,7.32820702
0.42248005,0.37288174,-1.54245896

>  <Name>
2fcx_lig

>  <RI>
224

>  <Rbt.Current_Directory>
/home/itssahil/PROJECTS/Mol_Feturizer/New_Systems/rnas/2fcx

>  <Rbt.Executable>
rbdock ($Id: //depot/dev/client3/rdock/2013.1/src/exe/rbdock.cxx#4 $)

>  <Rbt.Library>
libRbt.so (2013.1, Build901 2013/11/27)

>  <Rbt.Parameter_File>
/export/apps/rDock/src/rDock_2013.1_src/data/scripts/dock_solv.prm

>  <Rbt.Receptor>
prm/blind_docking_100.prm

>  <SCORE>
-7.39732

>  <SCORE.INTER>
-9.69239

>  <SCORE.INTER.CONST>
1

>  <SCORE.INTER.POLAR>
-1

>  <SCORE.INTER.ROT>
3

>  <SCORE.INTER.SOLV>
13.4445

>  <SCORE.INTER.VDW>
-13.2098

>  <SCORE.INTER.norm>
-0.440563

>  <SCORE.INTRA>
2.21835

>  <SCORE.INTRA.DIHEDRAL>
2.10836

>  <SCORE.INTRA.DIHEDRAL.0>
4.88619

>  <SCORE.INTRA.POLAR>
0

>  <SCORE.INTRA.POLAR.0>
0

>  <SCORE.INTRA.REPUL>
0

>  <SCORE.INTRA.REPUL.0>
0

>  <SCORE.INTRA.SOLV>
1.59526

>  <SCORE.INTRA.SOLV.lig_0>
-73.8187

>  <SCORE.INTRA.VDW>
0.366536

>  <SCORE.INTRA.VDW.0>
-1.32335

>  <SCORE.INTRA.norm>
0.100834

>  <SCORE.RESTR>
0.0767222

>  <SCORE.RESTR.CAVITY>
0.0767222

>  <SCORE.RESTR.norm>
0.00348737

>  <SCORE.SYSTEM>
0

>  <SCORE.SYSTEM.CONST>
0

>  <SCORE.SYSTEM.DIHEDRAL>
0

>  <SCORE.SYSTEM.SOLV>
0

>  <SCORE.SYSTEM.norm>
0

>  <SCORE.heavy>
22

>  <SCORE.norm>
-0.336242

>  <RMSD>
13.839

$$$$
2fcx_lig
 OpenBabel11021811433D
libRbt.so/2013.1/901 2013/11/27
 22 23  0  0  0  0  0  0  0  0999 V2000
   33.2479   -2.9255    4.4278 N   0  0  0  0  0  0  0  0  0  0  0  0
   31.1013    1.4813    4.6451 N   0  0  0  0  0  0  0  0  0  0  0  0
   26.7926   -2.8574    8.5064 N   0  0  0  0  0  0  0  0  0  0  0  0
   29.7369   -2.0499    7.7028 O   0  0  0  0  0  0  0  0  0  0  0  0
   30.1718   -1.7802    6.3672 C   0  0  2  0  0  0  0  0  0  0  0  0
   27.8145    2.0631    4.3120 N   0  0  0  0  0  0  0  0  0  0  0  0
   31.1786   -3.9486    6.1606 O   0  0  0  0  0  0  0  0  0  0  0  0
   31.4632   -2.5474    6.0735 C   0  0  1  0  0  0  0  0  0  0  0  0
   29.0641    0.3869    6.2790 O   0  0  0  0  0  0  0  0  0  0  0  0
   31.9831   -2.2169    4.6725 C   0  0  1  0  0  0  0  0  0  0  0  0
   27.3494   -1.1962    6.0652 O   0  0  0  0  0  0  0  0  0  0  0  0
   32.2151   -0.7093    4.5259 C   0  0  0  0  0  0  0  0  0  0  0  0
   24.9538    0.8247    8.0296 O   0  0  0  0  0  0  0  0  0  0  0  0
   30.8991    0.0316    4.7783 C   0  0  1  0  0  0  0  0  0  0  0  0
   25.3804    2.4837    5.7722 O   0  0  0  0  0  0  0  0  0  0  0  0
   30.3389   -0.2684    6.1718 C   0  0  2  0  0  0  0  0  0  0  0  0
   28.0674   -0.1467    5.3903 C   0  0  1  0  0  0  0  0  0  0  0  0
   26.6189   -0.7547    7.2272 C   0  0  2  0  0  0  0  0  0  0  0  0
   25.8594   -1.9239    7.8582 C   0  0  0  0  0  0  0  0  0  0  0  0
   25.6072    0.3327    6.8554 C   0  0  2  0  0  0  0  0  0  0  0  0
   26.3311    1.4964    6.1761 C   0  0  1  0  0  0  0  0  0  0  0  0
   27.0955    0.9598    4.9630 C   0  0  1  0  0  0  0  0  0  0  0  0
  5  4  1  1  0  0  0
  5  8  1  0  0  0  0
  5 16  1  0  0  0  0
  8  7  1  6  0  0  0
  8 10  1  0  0  0  0
 10  1  1  1  0  0  0
 10 12  1  0  0  0  0
 11 18  1  0  0  0  0
 12 14  1  0  0  0  0
 14  2  1  1  0  0  0
 14 16  1  0  0  0  0
 16  9  1  6  0  0  0
 17  9  1  1  0  0  0
 17 11  1  0  0  0  0
 17 22  1  0  0  0  0
 18 19  1  6  0  0  0
 18 20  1  0  0  0  0
 19  3  1  0  0  0  0
 20 13  1  1  0  0  0
 20 21  1  0  0  0  0
 21 15  1  6  0  0  0
 21 22  1  0  0  0  0
 22  6  1  1  0  0  0
M  END
>  <CHROM.1>
-54.52914954,90.96868170,71.12005736,28.75030859,-0.60589636,6.07333282,-0.23306448
0.41292066,-0.53216459

>  <Name>
2fcx_lig

>  <RI>
224

>  <Rbt.Current_Directory>
/home/itssahil/PROJECTS/Mol_Feturizer/New_Systems/rnas/2fcx

>  <Rbt.Executable>
rbdock ($Id: //depot/dev/client3/rdock/2013.1/src/exe/rbdock.cxx#4 $)

>  <Rbt.Library>
libRbt.so (2013.1, Build901 2013/11/27)

>  <Rbt.Parameter_File>
/export/apps/rDock/src/rDock_2013.1_src/data/scripts/dock_solv.prm

>  <Rbt.Receptor>
prm/blind_docking_100.prm

>  <SCORE>
-12.1337

>  <SCORE.INTER>
-13.6182

>  <SCORE.INTER.CONST>
1

>  <SCORE.INTER.POLAR>
-0.938083

>  <SCORE.INTER.ROT>
3

>  <SCORE.INTER.SOLV>
15.1065

>  <SCORE.INTER.VDW>
-16.5874

>  <SCORE.INTER.norm>
-0.619009

>  <SCORE.INTRA>
1.48452

>  <SCORE.INTRA.DIHEDRAL>
-0.521622

>  <SCORE.INTRA.DIHEDRAL.0>
4.88619

>  <SCORE.INTRA.POLAR>
0

>  <SCORE.INTRA.POLAR.0>
0

>  <SCORE.INTRA.REPUL>
0

>  <SCORE.INTRA.REPUL.0>
0

>  <SCORE.INTRA.SOLV>
2.54279

>  <SCORE.INTRA.SOLV.lig_0>
-73.8187

>  <SCORE.INTRA.VDW>
0.473936

>  <SCORE.INTRA.VDW.0>
-1.32335

>  <SCORE.INTRA.norm>
0.0674782

>  <SCORE.RESTR>
0

>  <SCORE.RESTR.CAVITY>
0

>  <SCORE.RESTR.norm>
0

>  <SCORE.SYSTEM>
0

>  <SCORE.SYSTEM.CONST>
0

>  <SCORE.SYSTEM.DIHEDRAL>
0

>  <SCORE.SYSTEM.SOLV>
0

>  <SCORE.SYSTEM.norm>
0

>  <SCORE.heavy>
22

>  <SCORE.norm>
-0.551531

>  <RMSD>
14.195

$$$$
2fcx_lig
 OpenBabel11021811433D
libRbt.so/2013.1/901 2013/11/27
 22 23  0  0  0  0  0  0  0  0999 V2000
   24.4414    1.2339    7.5756 N   0  0  0  0  0  0  0  0  0  0  0  0
   28.1137   -2.0190    7.6629 N   0  0  0  0  0  0  0  0  0  0  0  0
   31.1069   -1.7207    9.5547 N   0  0  0  0  0  0  0  0  0  0  0  0
   28.5908    2.1319    5.1684 O   0  0  0  0  0  0  0  0  0  0  0  0
   27.6655    1.1083    5.5449 C   0  0  2  0  0  0  0  0  0  0  0  0
   31.0417   -0.3141    3.2218 N   0  0  0  0  0  0  0  0  0  0  0  0
   25.8087    2.6252    5.4482 O   0  0  0  0  0  0  0  0  0  0  0  0
   26.4965    1.7204    6.3201 C   0  0  1  0  0  0  0  0  0  0  0  0
   29.3567   -0.6440    5.5223 O   0  0  0  0  0  0  0  0  0  0  0  0
   25.5305    0.6316    6.7929 C   0  0  1  0  0  0  0  0  0  0  0  0
   31.2169   -0.5189    6.9421 O   0  0  0  0  0  0  0  0  0  0  0  0
   26.2624   -0.3983    7.6600 C   0  0  0  0  0  0  0  0  0  0  0  0
   32.3113   -3.9635    6.1558 O   0  0  0  0  0  0  0  0  0  0  0  0
   27.3964   -1.0291    6.8470 C   0  0  1  0  0  0  0  0  0  0  0  0
   32.5986   -2.6877    3.6419 O   0  0  0  0  0  0  0  0  0  0  0  0
   28.3913    0.0245    6.3513 C   0  0  2  0  0  0  0  0  0  0  0  0
   30.6906   -0.1252    5.6613 C   0  0  1  0  0  0  0  0  0  0  0  0
   31.3491   -1.9448    7.1096 C   0  0  2  0  0  0  0  0  0  0  0  0
   31.9473   -2.2697    8.4801 C   0  0  0  0  0  0  0  0  0  0  0  0
   32.2609   -2.5388    6.0325 C   0  0  2  0  0  0  0  0  0  0  0  0
   31.7150   -2.1879    4.6474 C   0  0  1  0  0  0  0  0  0  0  0  0
   31.5861   -0.6662    4.5401 C   0  0  1  0  0  0  0  0  0  0  0  0
  5  4  1  1  0  0  0
  5  8  1  0  0  0  0
  5 16  1  0  0  0  0
  8  7  1  6  0  0  0
  8 10  1  0  0  0  0
 10  1  1  1  0  0  0
 10 12  1  0  0  0  0
 11 18  1  0  0  0  0
 12 14  1  0  0  0  0
 14  2  1  1  0  0  0
 14 16  1  0  0  0  0
 16  9  1  6  0  0  0
 17  9  1  6  0  0  0
 17 11  1  0  0  0  0
 17 22  1  0  0  0  0
 18 19  1  1  0  0  0
 18 20  1  0  0  0  0
 19  3  1  0  0  0  0
 20 13  1  1  0  0  0
 20 21  1  0  0  0  0
 21 15  1  6  0  0  0
 21 22  1  0  0  0  0
 22  6  1  6  0  0  0
M  END
>  <CHROM.1>
96.51714826,71.79107415,58.37749069,29.38364895,-0.61565816,6.20106725,2.98178675
0.52211797,-1.06596547

>  <Name>
2fcx_lig

>  <RI>
2.51704e+07

>  <Rbt.Current_Directory>
/home/itssahil/PROJECTS/Mol_Feturizer/New_Systems/rnas/2fcx

>  <Rbt.Executable>
rbdock ($Id: //depot/dev/client3/rdock/2013.1/src/exe/rbdock.cxx#4 $)

>  <Rbt.Library>
libRbt.so (2013.1, Build901 2013/11/27)

>  <Rbt.Parameter_File>
/export/apps/rDock/src/rDock_2013.1_src/data/scripts/dock_solv.prm

>  <Rbt.Receptor>
prm/blind_docking_80.prm

>  <SCORE>
-8.6471

>  <SCORE.INTER>
-9.0592

>  <SCORE.INTER.CONST>
1

>  <SCORE.INTER.POLAR>
-0.925353

>  <SCORE.INTER.ROT>
3

>  <SCORE.INTER.SOLV>
13.0772

>  <SCORE.INTER.VDW>
-12.914

>  <SCORE.INTER.norm>
-0.411782

>  <SCORE.INTRA>
0.412101

>  <SCORE.INTRA.DIHEDRAL>
0.601308

>  <SCORE.INTRA.DIHEDRAL.0>
4.88619

>  <SCORE.INTRA.POLAR>
0

>  <SCORE.INTRA.POLAR.0>
0

>  <SCORE.INTRA.REPUL>
0

>  <SCORE.INTRA.REPUL.0>
0

>  <SCORE.INTRA.SOLV>
1.82461

>  <SCORE.INTRA.SOLV.lig_0>
-73.8187

>  <SCORE.INTRA.VDW>
-0.800859

>  <SCORE.INTRA.VDW.0>
-1.32335

>  <SCORE.INTRA.norm>
0.0187319

>  <SCORE.RESTR>
0

>  <SCORE.RESTR.CAVITY>
0

>  <SCORE.RESTR.norm>
0

>  <SCORE.SYSTEM>
0

>  <SCORE.SYSTEM.CONST>
0

>  <SCORE.SYSTEM.DIHEDRAL>
0

>  <SCORE.SYSTEM.SOLV>
0

>  <SCORE.SYSTEM.norm>
0

>  <SCORE.heavy>
22

>  <SCORE.norm>
-0.39305

>  <RMSD>
14.421

$$$$
