1uui_lig
 OpenBabel02221317003D

 53 54  0  0  0  0  0  0  0  0999 V2000
  -11.6310    0.1380    2.1370 C   0  0  0  0  0  0  0  0  0  0  0  0
   -9.1310   -0.9760    1.1570 O   0  0  0  0  0  0  0  0  0  0  0  0
  -11.8100    2.8460   -2.1170 O   0  0  0  0  0  0  0  0  0  0  0  0
   -7.9270   -0.4110    1.6910 C   0  0  0  0  0  0  0  0  0  0  0  0
  -11.6990    4.1440   -1.5280 C   0  0  0  0  0  0  0  0  0  0  0  0
  -13.1290    0.1500    2.0640 N   0  0  0  0  0  0  0  0  0  0  0  0
   -7.0000   -1.5420    2.1390 C   0  0  0  0  0  0  0  0  0  0  0  0
  -13.6870    1.4050    2.6370 C   0  0  0  0  0  0  0  0  0  0  0  0
  -13.7050   -1.0200    2.7780 C   0  0  0  0  0  0  0  0  0  0  0  0
   -5.9690   -1.0090    3.1390 C   0  0  0  0  0  0  0  0  0  0  0  0
  -13.3190    1.5730    4.1210 C   0  0  0  0  0  0  0  0  0  0  0  0
  -13.3040   -1.0320    4.2630 C   0  0  0  0  0  0  0  0  0  0  0  0
   -4.6900   -0.7520    2.4400 N   0  0  0  0  0  0  0  0  0  0  0  0
  -12.8050    0.3020    4.7210 N   0  0  0  0  0  0  0  0  0  0  0  0
  -12.0350    0.3700    5.8970 C   0  0  0  0  0  0  0  0  0  0  0  0
  -11.6030    1.5700    6.3790 N   0  0  0  0  0  0  0  0  0  0  0  0
  -11.5910   -0.7670    6.5050 N   0  0  0  0  0  0  0  0  0  0  0  0
   -9.8030   -0.0140    0.3390 C   0  0  0  0  0  0  0  0  0  0  0  0
  -11.0290    0.5580    0.7760 C   0  0  0  0  0  0  0  0  0  0  0  0
  -11.6960    1.5110   -0.0430 C   0  0  0  0  0  0  0  0  0  0  0  0
  -11.1370    1.8890   -1.2940 C   0  0  0  0  0  0  0  0  0  0  0  0
   -9.9120    1.3170   -1.7270 C   0  0  0  0  0  0  0  0  0  0  0  0
   -9.2460    0.3650   -0.9110 C   0  0  0  0  0  0  0  0  0  0  0  0
  -11.2910   -0.8600    2.3820 H   0  0  0  0  0  0  0  0  0  0  0  0
  -11.2970    0.8240    2.9010 H   0  0  0  0  0  0  0  0  0  0  0  0
  -13.4100    0.0920    1.0760 H   0  0  0  0  0  0  0  0  0  0  0  0
   -7.4310    0.1810    0.9340 H   0  0  0  0  0  0  0  0  0  0  0  0
  -12.0720    4.1130   -0.5150 H   0  0  0  0  0  0  0  0  0  0  0  0
  -10.6630    4.4480   -1.5200 H   0  0  0  0  0  0  0  0  0  0  0  0
   -8.1690    0.2150    2.5370 H   0  0  0  0  0  0  0  0  0  0  0  0
  -12.2780    4.8510   -2.1030 H   0  0  0  0  0  0  0  0  0  0  0  0
   -7.5860   -2.3170    2.6050 H   0  0  0  0  0  0  0  0  0  0  0  0
  -14.7630    1.3860    2.5420 H   0  0  0  0  0  0  0  0  0  0  0  0
  -13.3020    2.2480    2.0850 H   0  0  0  0  0  0  0  0  0  0  0  0
   -6.4890   -1.9480    1.2790 H   0  0  0  0  0  0  0  0  0  0  0  0
  -14.7810   -0.9850    2.7020 H   0  0  0  0  0  0  0  0  0  0  0  0
  -13.3470   -1.9270    2.3110 H   0  0  0  0  0  0  0  0  0  0  0  0
   -5.8110   -1.7400    3.9210 H   0  0  0  0  0  0  0  0  0  0  0  0
  -12.5590    2.3330    4.1970 H   0  0  0  0  0  0  0  0  0  0  0  0
  -14.1940    1.8930    4.6670 H   0  0  0  0  0  0  0  0  0  0  0  0
   -6.3310   -0.0900    3.5760 H   0  0  0  0  0  0  0  0  0  0  0  0
  -12.5260   -1.7640    4.3980 H   0  0  0  0  0  0  0  0  0  0  0  0
  -14.1600   -1.3120    4.8580 H   0  0  0  0  0  0  0  0  0  0  0  0
   -4.1020   -0.1330    3.0160 H   0  0  0  0  0  0  0  0  0  0  0  0
   -4.2000   -1.6440    2.2830 H   0  0  0  0  0  0  0  0  0  0  0  0
   -4.8790   -0.3000    1.5340 H   0  0  0  0  0  0  0  0  0  0  0  0
  -11.0660    1.5980    7.1990 H   0  0  0  0  0  0  0  0  0  0  0  0
  -11.8260    2.4000    5.9190 H   0  0  0  0  0  0  0  0  0  0  0  0
  -11.0540   -0.7030    7.3220 H   0  0  0  0  0  0  0  0  0  0  0  0
  -11.8050   -1.6440    6.1350 H   0  0  0  0  0  0  0  0  0  0  0  0
  -12.6280    1.9450    0.2820 H   0  0  0  0  0  0  0  0  0  0  0  0
   -9.4890    1.6040   -2.6780 H   0  0  0  0  0  0  0  0  0  0  0  0
   -8.3150   -0.0720   -1.2420 H   0  0  0  0  0  0  0  0  0  0  0  0
  1 24  1  0  0  0  0
  1 25  1  0  0  0  0
  2  4  1  0  0  0  0
  3  5  1  0  0  0  0
  4  7  1  0  0  0  0
  4 27  1  0  0  0  0
  4 30  1  0  0  0  0
  5 28  1  0  0  0  0
  5 29  1  0  0  0  0
  5 31  1  0  0  0  0
  6  1  1  0  0  0  0
  6 26  1  0  0  0  0
  7 10  1  0  0  0  0
  7 32  1  0  0  0  0
  7 35  1  0  0  0  0
  8  6  1  0  0  0  0
  8 11  1  0  0  0  0
  8 33  1  0  0  0  0
  8 34  1  0  0  0  0
  9  6  1  0  0  0  0
  9 36  1  0  0  0  0
  9 37  1  0  0  0  0
 10 13  1  0  0  0  0
 10 38  1  0  0  0  0
 10 41  1  0  0  0  0
 11 14  1  0  0  0  0
 11 39  1  0  0  0  0
 11 40  1  0  0  0  0
 12  9  1  0  0  0  0
 12 42  1  0  0  0  0
 12 43  1  0  0  0  0
 13 44  1  0  0  0  0
 13 45  1  0  0  0  0
 13 46  1  0  0  0  0
 14 12  1  0  0  0  0
 14 15  1  0  0  0  0
 15 16  1  0  0  0  0
 15 17  1  0  0  0  0
 16 47  1  0  0  0  0
 16 48  1  0  0  0  0
 17 49  1  0  0  0  0
 17 50  1  0  0  0  0
 18  2  1  0  0  0  0
 18 23  2  0  0  0  0
 19  1  1  0  0  0  0
 19 18  1  0  0  0  0
 20 19  2  0  0  0  0
 20 51  1  0  0  0  0
 21  3  1  0  0  0  0
 21 20  1  0  0  0  0
 22 21  2  0  0  0  0
 22 23  1  0  0  0  0
 22 52  1  0  0  0  0
 23 53  1  0  0  0  0
M  END
$$$$
