1uui_lig
 OpenBabel11021811413D
libRbt.so/2013.1/901 2013/11/27
 23 24  0  0  0  0  0  0  0  0999 V2000
  -11.6901   -0.0295    2.6634 C   0  0  0  0  0  0  0  0  0  0  0  0
   -9.0518   -0.9525    1.8642 O   0  0  0  0  0  0  0  0  0  0  0  0
  -11.8311    2.5546   -1.6684 O   0  0  0  0  0  0  0  0  0  0  0  0
   -7.9166   -1.5184    1.1968 C   0  0  0  0  0  0  0  0  0  0  0  0
  -11.1729    3.8234   -1.7001 C   0  0  0  0  0  0  0  0  0  0  0  0
  -13.1819    0.1005    2.5798 N   0  0  0  0  0  0  0  0  0  0  0  0
   -6.7581   -0.5211    1.2485 C   0  0  0  0  0  0  0  0  0  0  0  0
  -13.6320    1.4466    3.0272 C   0  0  0  0  0  0  0  0  0  0  0  0
  -13.8528   -0.9439    3.3981 C   0  0  0  0  0  0  0  0  0  0  0  0
   -6.2605   -0.3708    2.6896 C   0  0  0  0  0  0  0  0  0  0  0  0
  -13.2490    1.7240    4.4909 C   0  0  0  0  0  0  0  0  0  0  0  0
  -13.4520   -0.8477    4.8801 C   0  0  0  0  0  0  0  0  0  0  0  0
   -5.5525   -1.6044    3.0988 N   0  0  0  0  0  0  0  0  0  0  0  0
  -12.8424    0.4775    5.2124 N   0  0  0  0  0  0  0  0  0  0  0  0
  -12.0676    0.5927    6.3816 C   0  0  0  0  0  0  0  0  0  0  0  0
  -11.8467    1.8101    6.9543 N   0  0  0  0  0  0  0  0  0  0  0  0
  -11.4109   -0.4885    6.8908 N   0  0  0  0  0  0  0  0  0  0  0  0
   -9.7494   -0.0694    0.9812 C   0  0  0  0  0  0  0  0  0  0  0  0
  -11.0427    0.4078    1.3289 C   0  0  0  0  0  0  0  0  0  0  0  0
  -11.7345    1.2823    0.4455 C   0  0  0  0  0  0  0  0  0  0  0  0
  -11.1332    1.6767   -0.7805 C   0  0  0  0  0  0  0  0  0  0  0  0
   -9.8411    1.1995   -1.1243 C   0  0  0  0  0  0  0  0  0  0  0  0
   -9.1502    0.3258   -0.2440 C   0  0  0  0  0  0  0  0  0  0  0  0
  2  4  1  0  0  0  0
  3  5  1  0  0  0  0
  4  7  1  0  0  0  0
  6  1  1  0  0  0  0
  7 10  1  0  0  0  0
  8  6  1  0  0  0  0
  8 11  1  0  0  0  0
  9  6  1  0  0  0  0
 10 13  1  0  0  0  0
 11 14  1  0  0  0  0
 12  9  1  0  0  0  0
 14 12  1  0  0  0  0
 14 15  1  0  0  0  0
 15 16  1  0  0  0  0
 15 17  1  0  0  0  0
 18  2  1  0  0  0  0
 18 23  2  0  0  0  0
 19  1  1  0  0  0  0
 19 18  1  0  0  0  0
 20 19  2  0  0  0  0
 21  3  1  0  0  0  0
 21 20  1  0  0  0  0
 22 21  2  0  0  0  0
 22 23  1  0  0  0  0
M  END
>  <CHROM.1>
81.95783266,68.10905174,-90.36703744,71.17330395,-73.10947966,9.08056440
104.15118637,-172.39484990,167.91569292,-156.88497464,111.06165455,-10.76814460
0.42361781,2.41024926,2.26109724,-0.36288848,1.87731516

>  <Name>
1uui_lig

>  <RI>
0

>  <Rbt.Current_Directory>
/home/itssahil/PROJECTS/Mol_Feturizer/New_Systems/rnas/1uui

>  <Rbt.Executable>
rbdock ($Id: //depot/dev/client3/rdock/2013.1/src/exe/rbdock.cxx#4 $)

>  <Rbt.Library>
libRbt.so (2013.1, Build901 2013/11/27)

>  <Rbt.Parameter_File>
/export/apps/rDock/src/rDock_2013.1_src/data/scripts/dock_solv.prm

>  <Rbt.Receptor>
prm/pocket_docking_2.prm

>  <SCORE>
-22.2901

>  <SCORE.INTER>
-21.9486

>  <SCORE.INTER.CONST>
1

>  <SCORE.INTER.POLAR>
-2.6132

>  <SCORE.INTER.ROT>
10

>  <SCORE.INTER.SOLV>
9.00379

>  <SCORE.INTER.VDW>
-19.1896

>  <SCORE.INTER.norm>
-0.954286

>  <SCORE.INTRA>
-0.341494

>  <SCORE.INTRA.DIHEDRAL>
-9.61774

>  <SCORE.INTRA.DIHEDRAL.0>
23.4151

>  <SCORE.INTRA.POLAR>
0

>  <SCORE.INTRA.POLAR.0>
0

>  <SCORE.INTRA.REPUL>
0

>  <SCORE.INTRA.REPUL.0>
0

>  <SCORE.INTRA.SOLV>
0.188957

>  <SCORE.INTRA.SOLV.lig_0>
-17.3568

>  <SCORE.INTRA.VDW>
4.3729

>  <SCORE.INTRA.VDW.0>
1.0768

>  <SCORE.INTRA.norm>
-0.0148476

>  <SCORE.RESTR>
0

>  <SCORE.RESTR.CAVITY>
0

>  <SCORE.RESTR.norm>
0

>  <SCORE.SYSTEM>
0

>  <SCORE.SYSTEM.CONST>
0

>  <SCORE.SYSTEM.DIHEDRAL>
0

>  <SCORE.SYSTEM.SOLV>
0

>  <SCORE.SYSTEM.norm>
0

>  <SCORE.heavy>
23

>  <SCORE.norm>
-0.969133

>  <RMSD>
0.733

$$$$
1uui_lig
 OpenBabel11021811413D
libRbt.so/2013.1/901 2013/11/27
 23 24  0  0  0  0  0  0  0  0999 V2000
  -11.3641    0.2925    2.5344 C   0  0  0  0  0  0  0  0  0  0  0  0
   -8.8515   -1.0391    1.9301 O   0  0  0  0  0  0  0  0  0  0  0  0
  -11.2187    2.1632   -2.1497 O   0  0  0  0  0  0  0  0  0  0  0  0
   -7.4925   -0.6378    2.1449 C   0  0  0  0  0  0  0  0  0  0  0  0
  -10.4438    3.3500   -2.3378 C   0  0  0  0  0  0  0  0  0  0  0  0
  -12.8538    0.2609    2.3637 N   0  0  0  0  0  0  0  0  0  0  0  0
   -6.5826   -1.8591    2.0047 C   0  0  0  0  0  0  0  0  0  0  0  0
  -13.4790    1.5221    2.8469 C   0  0  0  0  0  0  0  0  0  0  0  0
  -13.4469   -0.8950    3.0866 C   0  0  0  0  0  0  0  0  0  0  0  0
   -5.1340   -1.4717    2.3186 C   0  0  0  0  0  0  0  0  0  0  0  0
  -13.2141    1.7587    4.3435 C   0  0  0  0  0  0  0  0  0  0  0  0
  -13.1447   -0.8373    4.5937 C   0  0  0  0  0  0  0  0  0  0  0  0
   -4.9652   -1.3368    3.7828 N   0  0  0  0  0  0  0  0  0  0  0  0
  -12.7098    0.5269    5.0276 N   0  0  0  0  0  0  0  0  0  0  0  0
  -12.0211    0.6624    6.2474 C   0  0  0  0  0  0  0  0  0  0  0  0
  -11.7104    1.8954    6.7393 N   0  0  0  0  0  0  0  0  0  0  0  0
  -11.5318   -0.4329    6.8958 N   0  0  0  0  0  0  0  0  0  0  0  0
   -9.4454   -0.2320    0.9093 C   0  0  0  0  0  0  0  0  0  0  0  0
  -10.6743    0.4382    1.1581 C   0  0  0  0  0  0  0  0  0  0  0  0
  -11.2634    1.2361    0.1383 C   0  0  0  0  0  0  0  0  0  0  0  0
  -10.6239    1.3620   -1.1249 C   0  0  0  0  0  0  0  0  0  0  0  0
   -9.3962    0.6926   -1.3699 C   0  0  0  0  0  0  0  0  0  0  0  0
   -8.8079   -0.1049   -0.3532 C   0  0  0  0  0  0  0  0  0  0  0  0
  2  4  1  0  0  0  0
  3  5  1  0  0  0  0
  4  7  1  0  0  0  0
  6  1  1  0  0  0  0
  7 10  1  0  0  0  0
  8  6  1  0  0  0  0
  8 11  1  0  0  0  0
  9  6  1  0  0  0  0
 10 13  1  0  0  0  0
 11 14  1  0  0  0  0
 12  9  1  0  0  0  0
 14 12  1  0  0  0  0
 14 15  1  0  0  0  0
 15 16  1  0  0  0  0
 15 17  1  0  0  0  0
 18  2  1  0  0  0  0
 18 23  2  0  0  0  0
 19  1  1  0  0  0  0
 19 18  1  0  0  0  0
 20 19  2  0  0  0  0
 21  3  1  0  0  0  0
 21 20  1  0  0  0  0
 22 21  2  0  0  0  0
 22 23  1  0  0  0  0
M  END
>  <CHROM.1>
-125.86299061,-176.38881765,-108.10127085,76.30961437,38.83292586,-5.88845525
-26.95969492,-159.14195559,-127.04408900,-143.83842678,109.11782603,-10.42016043
0.31271342,2.32866950,2.32268952,-0.35467791,1.82572666

>  <Name>
1uui_lig

>  <RI>
0

>  <Rbt.Current_Directory>
/home/itssahil/PROJECTS/Mol_Feturizer/New_Systems/rnas/1uui

>  <Rbt.Executable>
rbdock ($Id: //depot/dev/client3/rdock/2013.1/src/exe/rbdock.cxx#4 $)

>  <Rbt.Library>
libRbt.so (2013.1, Build901 2013/11/27)

>  <Rbt.Parameter_File>
/export/apps/rDock/src/rDock_2013.1_src/data/scripts/dock_solv.prm

>  <Rbt.Receptor>
prm/pocket_docking_3.prm

>  <SCORE>
-25.942

>  <SCORE.INTER>
-26.629

>  <SCORE.INTER.CONST>
1

>  <SCORE.INTER.POLAR>
-3.54035

>  <SCORE.INTER.ROT>
10

>  <SCORE.INTER.SOLV>
9.77781

>  <SCORE.INTER.VDW>
-19.4774

>  <SCORE.INTER.norm>
-1.15778

>  <SCORE.INTRA>
0.686956

>  <SCORE.INTRA.DIHEDRAL>
0.590244

>  <SCORE.INTRA.DIHEDRAL.0>
23.4151

>  <SCORE.INTRA.POLAR>
0

>  <SCORE.INTRA.POLAR.0>
0

>  <SCORE.INTRA.REPUL>
0

>  <SCORE.INTRA.REPUL.0>
0

>  <SCORE.INTRA.SOLV>
0.0273835

>  <SCORE.INTRA.SOLV.lig_0>
-17.3568

>  <SCORE.INTRA.VDW>
0.378142

>  <SCORE.INTRA.VDW.0>
1.0768

>  <SCORE.INTRA.norm>
0.0298676

>  <SCORE.RESTR>
0

>  <SCORE.RESTR.CAVITY>
0

>  <SCORE.RESTR.norm>
0

>  <SCORE.SYSTEM>
0

>  <SCORE.SYSTEM.CONST>
0

>  <SCORE.SYSTEM.DIHEDRAL>
0

>  <SCORE.SYSTEM.SOLV>
0

>  <SCORE.SYSTEM.norm>
0

>  <SCORE.heavy>
23

>  <SCORE.norm>
-1.12791

>  <RMSD>
0.778

$$$$
1uui_lig
 OpenBabel11021811413D
libRbt.so/2013.1/901 2013/11/27
 23 24  0  0  0  0  0  0  0  0999 V2000
  -11.5170    0.3180    2.5599 C   0  0  0  0  0  0  0  0  0  0  0  0
   -8.9872   -1.0065    2.0148 O   0  0  0  0  0  0  0  0  0  0  0  0
  -11.3821    2.0009   -2.1952 O   0  0  0  0  0  0  0  0  0  0  0  0
   -7.5700   -0.7933    2.0267 C   0  0  0  0  0  0  0  0  0  0  0  0
  -10.9223    3.3535   -2.1401 C   0  0  0  0  0  0  0  0  0  0  0  0
  -13.0062    0.2683    2.3880 N   0  0  0  0  0  0  0  0  0  0  0  0
   -6.8794   -1.9872    1.3657 C   0  0  0  0  0  0  0  0  0  0  0  0
  -13.6477    1.5190    2.8769 C   0  0  0  0  0  0  0  0  0  0  0  0
  -13.5850   -0.8987    3.1046 C   0  0  0  0  0  0  0  0  0  0  0  0
   -5.3590   -1.8068    1.4168 C   0  0  0  0  0  0  0  0  0  0  0  0
  -13.3868    1.7515    4.3748 C   0  0  0  0  0  0  0  0  0  0  0  0
  -13.2846   -0.8446    4.6122 C   0  0  0  0  0  0  0  0  0  0  0  0
   -4.9311   -1.6164    2.8208 N   0  0  0  0  0  0  0  0  0  0  0  0
  -12.8675    0.5229    5.0532 N   0  0  0  0  0  0  0  0  0  0  0  0
  -12.1814    0.6610    6.2742 C   0  0  0  0  0  0  0  0  0  0  0  0
  -11.5517   -0.4054    6.8445 N   0  0  0  0  0  0  0  0  0  0  0  0
  -12.2437    1.8263    6.9797 N   0  0  0  0  0  0  0  0  0  0  0  0
   -9.5881   -0.2482    0.9612 C   0  0  0  0  0  0  0  0  0  0  0  0
  -10.8255    0.4166    1.1804 C   0  0  0  0  0  0  0  0  0  0  0  0
  -11.4215    1.1659    0.1281 C   0  0  0  0  0  0  0  0  0  0  0  0
  -10.7804    1.2486   -1.1378 C   0  0  0  0  0  0  0  0  0  0  0  0
   -9.5442    0.5847   -1.3532 C   0  0  0  0  0  0  0  0  0  0  0  0
   -8.9490   -0.1642   -0.3041 C   0  0  0  0  0  0  0  0  0  0  0  0
  2  4  1  0  0  0  0
  3  5  1  0  0  0  0
  4  7  1  0  0  0  0
  6  1  1  0  0  0  0
  7 10  1  0  0  0  0
  8  6  1  0  0  0  0
  8 11  1  0  0  0  0
  9  6  1  0  0  0  0
 10 13  1  0  0  0  0
 11 14  1  0  0  0  0
 12  9  1  0  0  0  0
 14 12  1  0  0  0  0
 14 15  1  0  0  0  0
 15 16  1  0  0  0  0
 15 17  1  0  0  0  0
 18  2  1  0  0  0  0
 18 23  2  0  0  0  0
 19  1  1  0  0  0  0
 19 18  1  0  0  0  0
 20 19  2  0  0  0  0
 21  3  1  0  0  0  0
 21 20  1  0  0  0  0
 22 21  2  0  0  0  0
 22 23  1  0  0  0  0
M  END
>  <CHROM.1>
-101.24895121,-177.76864046,-110.58266558,56.11592220,-78.33118885,-171.97094786
19.26196020,-71.22554607,-139.48649509,-144.10888144,89.93666037,-10.59623201
0.24838702,2.24040175,2.42540453,-0.40847994,1.82874349

>  <Name>
1uui_lig

>  <RI>
0

>  <Rbt.Current_Directory>
/home/itssahil/PROJECTS/Mol_Feturizer/New_Systems/rnas/1uui

>  <Rbt.Executable>
rbdock ($Id: //depot/dev/client3/rdock/2013.1/src/exe/rbdock.cxx#4 $)

>  <Rbt.Library>
libRbt.so (2013.1, Build901 2013/11/27)

>  <Rbt.Parameter_File>
/export/apps/rDock/src/rDock_2013.1_src/data/scripts/dock_solv.prm

>  <Rbt.Receptor>
prm/pocket_docking_2.prm

>  <SCORE>
-23.9594

>  <SCORE.INTER>
-23.9392

>  <SCORE.INTER.CONST>
1

>  <SCORE.INTER.POLAR>
-2.83878

>  <SCORE.INTER.ROT>
10

>  <SCORE.INTER.SOLV>
8.7309

>  <SCORE.INTER.VDW>
-19.6738

>  <SCORE.INTER.norm>
-1.04083

>  <SCORE.INTRA>
-0.0202088

>  <SCORE.INTRA.DIHEDRAL>
-2.32787

>  <SCORE.INTRA.DIHEDRAL.0>
23.4151

>  <SCORE.INTRA.POLAR>
0

>  <SCORE.INTRA.POLAR.0>
0

>  <SCORE.INTRA.REPUL>
0

>  <SCORE.INTRA.REPUL.0>
0

>  <SCORE.INTRA.SOLV>
0.0468652

>  <SCORE.INTRA.SOLV.lig_0>
-17.3568

>  <SCORE.INTRA.VDW>
1.12029

>  <SCORE.INTRA.VDW.0>
1.0768

>  <SCORE.INTRA.norm>
-0.000878644

>  <SCORE.RESTR>
0

>  <SCORE.RESTR.CAVITY>
0

>  <SCORE.RESTR.norm>
0

>  <SCORE.SYSTEM>
0

>  <SCORE.SYSTEM.CONST>
0

>  <SCORE.SYSTEM.DIHEDRAL>
0

>  <SCORE.SYSTEM.SOLV>
0

>  <SCORE.SYSTEM.norm>
0

>  <SCORE.heavy>
23

>  <SCORE.norm>
-1.04171

>  <RMSD>
0.801

$$$$
1uui_lig
 OpenBabel11021811413D
libRbt.so/2013.1/901 2013/11/27
 23 24  0  0  0  0  0  0  0  0999 V2000
  -11.8706   -0.1071    2.7008 C   0  0  0  0  0  0  0  0  0  0  0  0
   -9.2081   -0.9309    1.8738 O   0  0  0  0  0  0  0  0  0  0  0  0
  -12.2061    2.3592   -1.6886 O   0  0  0  0  0  0  0  0  0  0  0  0
   -7.8651   -0.4424    1.9821 C   0  0  0  0  0  0  0  0  0  0  0  0
  -12.5905    1.5929   -2.8327 C   0  0  0  0  0  0  0  0  0  0  0  0
  -13.3620    0.0493    2.6756 N   0  0  0  0  0  0  0  0  0  0  0  0
   -6.9345   -1.6088    2.3180 C   0  0  0  0  0  0  0  0  0  0  0  0
  -13.7697    1.4070    3.1287 C   0  0  0  0  0  0  0  0  0  0  0  0
  -14.0181   -0.9760    3.5292 C   0  0  0  0  0  0  0  0  0  0  0  0
   -5.5247   -1.0862    2.6117 C   0  0  0  0  0  0  0  0  0  0  0  0
  -13.3235    1.6892    4.5734 C   0  0  0  0  0  0  0  0  0  0  0  0
  -13.5566   -0.8751    4.9931 C   0  0  0  0  0  0  0  0  0  0  0  0
   -4.9328   -0.5378    1.3710 N   0  0  0  0  0  0  0  0  0  0  0  0
  -12.9106    0.4415    5.2891 N   0  0  0  0  0  0  0  0  0  0  0  0
  -12.0877    0.5521    6.4254 C   0  0  0  0  0  0  0  0  0  0  0  0
  -11.4376   -0.5377    6.9241 N   0  0  0  0  0  0  0  0  0  0  0  0
  -12.0283    1.7175    7.1309 N   0  0  0  0  0  0  0  0  0  0  0  0
   -9.9607   -0.1022    0.9833 C   0  0  0  0  0  0  0  0  0  0  0  0
  -11.2677    0.3253    1.3440 C   0  0  0  0  0  0  0  0  0  0  0  0
  -12.0141    1.1456    0.4531 C   0  0  0  0  0  0  0  0  0  0  0  0
  -11.4534    1.5358   -0.7933 C   0  0  0  0  0  0  0  0  0  0  0  0
  -10.1475    1.1084   -1.1501 C   0  0  0  0  0  0  0  0  0  0  0  0
   -9.4020    0.2887   -0.2623 C   0  0  0  0  0  0  0  0  0  0  0  0
  2  4  1  0  0  0  0
  3  5  1  0  0  0  0
  4  7  1  0  0  0  0
  6  1  1  0  0  0  0
  7 10  1  0  0  0  0
  8  6  1  0  0  0  0
  8 11  1  0  0  0  0
  9  6  1  0  0  0  0
 10 13  1  0  0  0  0
 11 14  1  0  0  0  0
 12  9  1  0  0  0  0
 14 12  1  0  0  0  0
 14 15  1  0  0  0  0
 15 16  1  0  0  0  0
 15 17  1  0  0  0  0
 18  2  1  0  0  0  0
 18 23  2  0  0  0  0
 19  1  1  0  0  0  0
 19 18  1  0  0  0  0
 20 19  2  0  0  0  0
 21  3  1  0  0  0  0
 21 20  1  0  0  0  0
 22 21  2  0  0  0  0
 22 23  1  0  0  0  0
M  END
>  <CHROM.1>
-152.37413615,-172.92301249,-89.62102559,-67.61255637,-176.48306351,-164.74312666
-163.15128358,76.48085681,-134.33088672,-160.99773900,-110.18976550,-10.91402140
0.29852399,2.37890710,2.31183934,-0.26514972,1.74773810

>  <Name>
1uui_lig

>  <RI>
0

>  <Rbt.Current_Directory>
/home/itssahil/PROJECTS/Mol_Feturizer/New_Systems/rnas/1uui

>  <Rbt.Executable>
rbdock ($Id: //depot/dev/client3/rdock/2013.1/src/exe/rbdock.cxx#4 $)

>  <Rbt.Library>
libRbt.so (2013.1, Build901 2013/11/27)

>  <Rbt.Parameter_File>
/export/apps/rDock/src/rDock_2013.1_src/data/scripts/dock_solv.prm

>  <Rbt.Receptor>
prm/pocket_docking_2.prm

>  <SCORE>
-18.3062

>  <SCORE.INTER>
-15.4882

>  <SCORE.INTER.CONST>
1

>  <SCORE.INTER.POLAR>
-1.44911

>  <SCORE.INTER.ROT>
10

>  <SCORE.INTER.SOLV>
8.346

>  <SCORE.INTER.VDW>
-18.5437

>  <SCORE.INTER.norm>
-0.6734

>  <SCORE.INTRA>
-2.81802

>  <SCORE.INTRA.DIHEDRAL>
-6.86393

>  <SCORE.INTRA.DIHEDRAL.0>
23.4151

>  <SCORE.INTRA.POLAR>
0

>  <SCORE.INTRA.POLAR.0>
0

>  <SCORE.INTRA.REPUL>
0

>  <SCORE.INTRA.REPUL.0>
0

>  <SCORE.INTRA.SOLV>
0.028198

>  <SCORE.INTRA.SOLV.lig_0>
-17.3568

>  <SCORE.INTRA.VDW>
0.599853

>  <SCORE.INTRA.VDW.0>
1.0768

>  <SCORE.INTRA.norm>
-0.122522

>  <SCORE.RESTR>
0

>  <SCORE.RESTR.CAVITY>
0

>  <SCORE.RESTR.norm>
0

>  <SCORE.SYSTEM>
0

>  <SCORE.SYSTEM.CONST>
0

>  <SCORE.SYSTEM.DIHEDRAL>
0

>  <SCORE.SYSTEM.SOLV>
0

>  <SCORE.SYSTEM.norm>
0

>  <SCORE.heavy>
23

>  <SCORE.norm>
-0.795922

>  <RMSD>
0.909

$$$$
1uui_lig
 OpenBabel11021811413D
libRbt.so/2013.1/901 2013/11/27
 23 24  0  0  0  0  0  0  0  0999 V2000
  -12.1897    1.0077    1.9927 C   0  0  0  0  0  0  0  0  0  0  0  0
   -9.6500   -0.1543    1.1858 O   0  0  0  0  0  0  0  0  0  0  0  0
  -12.2647    3.3431   -2.4796 O   0  0  0  0  0  0  0  0  0  0  0  0
   -8.2311    0.0371    1.1205 C   0  0  0  0  0  0  0  0  0  0  0  0
  -11.5341    4.5681   -2.5776 C   0  0  0  0  0  0  0  0  0  0  0  0
  -13.6843    1.0853    1.8952 N   0  0  0  0  0  0  0  0  0  0  0  0
   -7.5567   -0.8678    2.1527 C   0  0  0  0  0  0  0  0  0  0  0  0
  -14.2365    2.0810    2.8535 C   0  0  0  0  0  0  0  0  0  0  0  0
  -14.3028   -0.2427    2.1486 C   0  0  0  0  0  0  0  0  0  0  0  0
   -6.0608   -0.5471    2.2324 C   0  0  0  0  0  0  0  0  0  0  0  0
  -13.9107    1.7173    4.3121 C   0  0  0  0  0  0  0  0  0  0  0  0
  -13.9473   -0.7765    3.5468 C   0  0  0  0  0  0  0  0  0  0  0  0
   -5.2881   -1.8078    2.2963 N   0  0  0  0  0  0  0  0  0  0  0  0
  -13.4383    0.3038    4.4479 N   0  0  0  0  0  0  0  0  0  0  0  0
  -12.7031   -0.0586    5.5919 C   0  0  0  0  0  0  0  0  0  0  0  0
  -12.0513    0.8848    6.3295 N   0  0  0  0  0  0  0  0  0  0  0  0
  -12.5147   -1.3709    5.9113 N   0  0  0  0  0  0  0  0  0  0  0  0
  -10.3060    0.7265    0.2693 C   0  0  0  0  0  0  0  0  0  0  0  0
  -11.5504    1.3183    0.6194 C   0  0  0  0  0  0  0  0  0  0  0  0
  -12.2013    2.1901   -0.2971 C   0  0  0  0  0  0  0  0  0  0  0  0
  -11.6079    2.4677   -1.5586 C   0  0  0  0  0  0  0  0  0  0  0  0
  -10.3647    1.8763   -1.9048 C   0  0  0  0  0  0  0  0  0  0  0  0
   -9.7147    1.0051   -0.9913 C   0  0  0  0  0  0  0  0  0  0  0  0
  2  4  1  0  0  0  0
  3  5  1  0  0  0  0
  4  7  1  0  0  0  0
  6  1  1  0  0  0  0
  7 10  1  0  0  0  0
  8  6  1  0  0  0  0
  8 11  1  0  0  0  0
  9  6  1  0  0  0  0
 10 13  1  0  0  0  0
 11 14  1  0  0  0  0
 12  9  1  0  0  0  0
 14 12  1  0  0  0  0
 14 15  1  0  0  0  0
 15 16  1  0  0  0  0
 15 17  1  0  0  0  0
 18  2  1  0  0  0  0
 18 23  2  0  0  0  0
 19  1  1  0  0  0  0
 19 18  1  0  0  0  0
 20 19  2  0  0  0  0
 21  3  1  0  0  0  0
 21 20  1  0  0  0  0
 22 21  2  0  0  0  0
 22 23  1  0  0  0  0
M  END
>  <CHROM.1>
177.43056598,-172.49927556,-122.19439758,-137.12597442,62.45382368,-21.64080353
17.81521577,128.84920336,-143.12627368,-150.16942702,109.65970913,-11.23537509
0.78068874,1.76720407,2.11440167,-0.32346071,2.02971472

>  <Name>
1uui_lig

>  <RI>
0

>  <Rbt.Current_Directory>
/home/itssahil/PROJECTS/Mol_Feturizer/New_Systems/rnas/1uui

>  <Rbt.Executable>
rbdock ($Id: //depot/dev/client3/rdock/2013.1/src/exe/rbdock.cxx#4 $)

>  <Rbt.Library>
libRbt.so (2013.1, Build901 2013/11/27)

>  <Rbt.Parameter_File>
/export/apps/rDock/src/rDock_2013.1_src/data/scripts/dock_solv.prm

>  <Rbt.Receptor>
prm/pocket_docking_2.prm

>  <SCORE>
-14.4186

>  <SCORE.INTER>
-14.1517

>  <SCORE.INTER.CONST>
1

>  <SCORE.INTER.POLAR>
-2.14197

>  <SCORE.INTER.ROT>
10

>  <SCORE.INTER.SOLV>
7.08875

>  <SCORE.INTER.VDW>
-14.9242

>  <SCORE.INTER.norm>
-0.615293

>  <SCORE.INTRA>
-0.266831

>  <SCORE.INTRA.DIHEDRAL>
-4.71347

>  <SCORE.INTRA.DIHEDRAL.0>
23.4151

>  <SCORE.INTRA.POLAR>
0

>  <SCORE.INTRA.POLAR.0>
0

>  <SCORE.INTRA.REPUL>
0

>  <SCORE.INTRA.REPUL.0>
0

>  <SCORE.INTRA.SOLV>
-0.0772616

>  <SCORE.INTRA.SOLV.lig_0>
-17.3568

>  <SCORE.INTRA.VDW>
2.12853

>  <SCORE.INTRA.VDW.0>
1.0768

>  <SCORE.INTRA.norm>
-0.0116014

>  <SCORE.RESTR>
0

>  <SCORE.RESTR.CAVITY>
0

>  <SCORE.RESTR.norm>
0

>  <SCORE.SYSTEM>
0

>  <SCORE.SYSTEM.CONST>
0

>  <SCORE.SYSTEM.DIHEDRAL>
0

>  <SCORE.SYSTEM.SOLV>
0

>  <SCORE.SYSTEM.norm>
0

>  <SCORE.heavy>
23

>  <SCORE.norm>
-0.626895

>  <RMSD>
0.940

$$$$
1uui_lig
 OpenBabel11021811413D
libRbt.so/2013.1/901 2013/11/27
 23 24  0  0  0  0  0  0  0  0999 V2000
  -11.7623    0.3295    2.6150 C   0  0  0  0  0  0  0  0  0  0  0  0
   -8.9694   -0.0092    1.8827 O   0  0  0  0  0  0  0  0  0  0  0  0
  -12.3814    2.6918   -1.8007 O   0  0  0  0  0  0  0  0  0  0  0  0
   -8.1225   -0.9265    1.1790 C   0  0  0  0  0  0  0  0  0  0  0  0
  -12.7874    1.7823   -2.8264 C   0  0  0  0  0  0  0  0  0  0  0  0
  -13.2590    0.2552    2.5527 N   0  0  0  0  0  0  0  0  0  0  0  0
   -7.0577   -1.4603    2.1384 C   0  0  0  0  0  0  0  0  0  0  0  0
  -13.8831    1.5042    3.0677 C   0  0  0  0  0  0  0  0  0  0  0  0
  -13.7658   -0.9082    3.3274 C   0  0  0  0  0  0  0  0  0  0  0  0
   -6.1238   -0.3245    2.5686 C   0  0  0  0  0  0  0  0  0  0  0  0
  -13.5180    1.7653    4.5389 C   0  0  0  0  0  0  0  0  0  0  0  0
  -13.3577   -0.8247    4.8082 C   0  0  0  0  0  0  0  0  0  0  0  0
   -5.2789    0.0808    1.4230 N   0  0  0  0  0  0  0  0  0  0  0  0
  -12.9314    0.5558    5.1966 N   0  0  0  0  0  0  0  0  0  0  0  0
  -12.1608    0.7241    6.3620 C   0  0  0  0  0  0  0  0  0  0  0  0
  -11.8946    1.9699    6.8479 N   0  0  0  0  0  0  0  0  0  0  0  0
  -11.5520   -0.3429    6.9542 N   0  0  0  0  0  0  0  0  0  0  0  0
   -9.8266    0.6716    0.9618 C   0  0  0  0  0  0  0  0  0  0  0  0
  -11.2002    0.8605    1.2759 C   0  0  0  0  0  0  0  0  0  0  0  0
  -12.0498    1.5342    0.3549 C   0  0  0  0  0  0  0  0  0  0  0  0
  -11.5252    2.0163   -0.8750 C   0  0  0  0  0  0  0  0  0  0  0  0
  -10.1529    1.8272   -1.1853 C   0  0  0  0  0  0  0  0  0  0  0  0
   -9.3043    1.1540   -0.2674 C   0  0  0  0  0  0  0  0  0  0  0  0
  2  4  1  0  0  0  0
  3  5  1  0  0  0  0
  4  7  1  0  0  0  0
  6  1  1  0  0  0  0
  7 10  1  0  0  0  0
  8  6  1  0  0  0  0
  8 11  1  0  0  0  0
  9  6  1  0  0  0  0
 10 13  1  0  0  0  0
 11 14  1  0  0  0  0
 12  9  1  0  0  0  0
 14 12  1  0  0  0  0
 14 15  1  0  0  0  0
 15 16  1  0  0  0  0
 15 17  1  0  0  0  0
 18  2  1  0  0  0  0
 18 23  2  0  0  0  0
 19  1  1  0  0  0  0
 19 18  1  0  0  0  0
 20 19  2  0  0  0  0
 21  3  1  0  0  0  0
 21 20  1  0  0  0  0
 22 21  2  0  0  0  0
 22 23  1  0  0  0  0
M  END
>  <CHROM.1>
170.27555864,-65.81698170,-92.57414353,-70.36415518,-57.68428729,-3.29330683
-52.64839539,20.26774064,136.81280093,-162.58856116,-99.41396892,-10.95945803
0.63924581,2.27140386,2.18596458,-0.24368514,1.78427116

>  <Name>
1uui_lig

>  <RI>
0

>  <Rbt.Current_Directory>
/home/itssahil/PROJECTS/Mol_Feturizer/New_Systems/rnas/1uui

>  <Rbt.Executable>
rbdock ($Id: //depot/dev/client3/rdock/2013.1/src/exe/rbdock.cxx#4 $)

>  <Rbt.Library>
libRbt.so (2013.1, Build901 2013/11/27)

>  <Rbt.Parameter_File>
/export/apps/rDock/src/rDock_2013.1_src/data/scripts/dock_solv.prm

>  <Rbt.Receptor>
prm/pocket_docking_2.prm

>  <SCORE>
-16.6799

>  <SCORE.INTER>
-13.232

>  <SCORE.INTER.CONST>
1

>  <SCORE.INTER.POLAR>
-1.13137

>  <SCORE.INTER.ROT>
10

>  <SCORE.INTER.SOLV>
6.99105

>  <SCORE.INTER.VDW>
-17.6471

>  <SCORE.INTER.norm>
-0.575304

>  <SCORE.INTRA>
-3.44788

>  <SCORE.INTRA.DIHEDRAL>
-9.07141

>  <SCORE.INTRA.DIHEDRAL.0>
23.4151

>  <SCORE.INTRA.POLAR>
0

>  <SCORE.INTRA.POLAR.0>
0

>  <SCORE.INTRA.REPUL>
0

>  <SCORE.INTRA.REPUL.0>
0

>  <SCORE.INTRA.SOLV>
0.228987

>  <SCORE.INTRA.SOLV.lig_0>
-17.3568

>  <SCORE.INTRA.VDW>
0.97333

>  <SCORE.INTRA.VDW.0>
1.0768

>  <SCORE.INTRA.norm>
-0.149908

>  <SCORE.RESTR>
0

>  <SCORE.RESTR.CAVITY>
0

>  <SCORE.RESTR.norm>
0

>  <SCORE.SYSTEM>
0

>  <SCORE.SYSTEM.CONST>
0

>  <SCORE.SYSTEM.DIHEDRAL>
0

>  <SCORE.SYSTEM.SOLV>
0

>  <SCORE.SYSTEM.norm>
0

>  <SCORE.heavy>
23

>  <SCORE.norm>
-0.725212

>  <RMSD>
0.946

$$$$
1uui_lig
 OpenBabel11021811413D
libRbt.so/2013.1/901 2013/11/27
 23 24  0  0  0  0  0  0  0  0999 V2000
  -11.4551    0.4210    2.6196 C   0  0  0  0  0  0  0  0  0  0  0  0
   -8.9939   -1.0080    2.0265 O   0  0  0  0  0  0  0  0  0  0  0  0
  -11.2304    2.2625   -2.0729 O   0  0  0  0  0  0  0  0  0  0  0  0
   -7.5925   -0.7394    2.1608 C   0  0  0  0  0  0  0  0  0  0  0  0
  -11.9620    1.4430   -2.9879 C   0  0  0  0  0  0  0  0  0  0  0  0
  -12.9413    0.3324    2.4387 N   0  0  0  0  0  0  0  0  0  0  0  0
   -6.8012   -1.8832    1.5246 C   0  0  0  0  0  0  0  0  0  0  0  0
  -13.6207    1.5542    2.9490 C   0  0  0  0  0  0  0  0  0  0  0  0
  -13.4900   -0.8648    3.1287 C   0  0  0  0  0  0  0  0  0  0  0  0
   -5.2982   -1.6254    1.6718 C   0  0  0  0  0  0  0  0  0  0  0  0
  -13.3738    1.7639    4.4527 C   0  0  0  0  0  0  0  0  0  0  0  0
  -13.1985   -0.8324    4.6388 C   0  0  0  0  0  0  0  0  0  0  0  0
   -4.9644   -1.4537    3.1034 N   0  0  0  0  0  0  0  0  0  0  0  0
  -12.8228    0.5372    5.1092 N   0  0  0  0  0  0  0  0  0  0  0  0
  -12.1468    0.6702    6.3364 C   0  0  0  0  0  0  0  0  0  0  0  0
  -12.0886    1.8744    6.9732 N   0  0  0  0  0  0  0  0  0  0  0  0
  -11.4228   -0.3659    6.8482 N   0  0  0  0  0  0  0  0  0  0  0  0
   -9.5548   -0.1838    1.0008 C   0  0  0  0  0  0  0  0  0  0  0  0
  -10.7578    0.5337    1.2441 C   0  0  0  0  0  0  0  0  0  0  0  0
  -11.3143    1.3487    0.2194 C   0  0  0  0  0  0  0  0  0  0  0  0
  -10.6684    1.4441   -1.0432 C   0  0  0  0  0  0  0  0  0  0  0  0
   -9.4666    0.7273   -1.2826 C   0  0  0  0  0  0  0  0  0  0  0  0
   -8.9108   -0.0871   -0.2611 C   0  0  0  0  0  0  0  0  0  0  0  0
  2  4  1  0  0  0  0
  3  5  1  0  0  0  0
  4  7  1  0  0  0  0
  6  1  1  0  0  0  0
  7 10  1  0  0  0  0
  8  6  1  0  0  0  0
  8 11  1  0  0  0  0
  9  6  1  0  0  0  0
 10 13  1  0  0  0  0
 11 14  1  0  0  0  0
 12  9  1  0  0  0  0
 14 12  1  0  0  0  0
 14 15  1  0  0  0  0
 15 16  1  0  0  0  0
 15 17  1  0  0  0  0
 18  2  1  0  0  0  0
 18 23  2  0  0  0  0
 19  1  1  0  0  0  0
 19 18  1  0  0  0  0
 20 19  2  0  0  0  0
 21  3  1  0  0  0  0
 21 20  1  0  0  0  0
 22 21  2  0  0  0  0
 22 23  1  0  0  0  0
M  END
>  <CHROM.1>
-104.58363442,-179.30608300,-111.89776249,56.68974691,46.53210094,5.37053259
-86.07853408,2.91594914,-132.09717126,-139.23363483,-99.21280538,-10.58426016
0.24293978,2.27984065,2.34002966,-0.36124880,1.74394388

>  <Name>
1uui_lig

>  <RI>
0

>  <Rbt.Current_Directory>
/home/itssahil/PROJECTS/Mol_Feturizer/New_Systems/rnas/1uui

>  <Rbt.Executable>
rbdock ($Id: //depot/dev/client3/rdock/2013.1/src/exe/rbdock.cxx#4 $)

>  <Rbt.Library>
libRbt.so (2013.1, Build901 2013/11/27)

>  <Rbt.Parameter_File>
/export/apps/rDock/src/rDock_2013.1_src/data/scripts/dock_solv.prm

>  <Rbt.Receptor>
prm/pocket_docking_2.prm

>  <SCORE>
-25.8436

>  <SCORE.INTER>
-25.4293

>  <SCORE.INTER.CONST>
1

>  <SCORE.INTER.POLAR>
-2.8431

>  <SCORE.INTER.ROT>
10

>  <SCORE.INTER.SOLV>
8.89533

>  <SCORE.INTER.VDW>
-20.7077

>  <SCORE.INTER.norm>
-1.10562

>  <SCORE.INTRA>
-0.414272

>  <SCORE.INTRA.DIHEDRAL>
-1.79611

>  <SCORE.INTRA.DIHEDRAL.0>
23.4151

>  <SCORE.INTRA.POLAR>
0

>  <SCORE.INTRA.POLAR.0>
0

>  <SCORE.INTRA.REPUL>
0

>  <SCORE.INTRA.REPUL.0>
0

>  <SCORE.INTRA.SOLV>
0.0619564

>  <SCORE.INTRA.SOLV.lig_0>
-17.3568

>  <SCORE.INTRA.VDW>
0.452805

>  <SCORE.INTRA.VDW.0>
1.0768

>  <SCORE.INTRA.norm>
-0.0180118

>  <SCORE.RESTR>
0

>  <SCORE.RESTR.CAVITY>
0

>  <SCORE.RESTR.norm>
0

>  <SCORE.SYSTEM>
0

>  <SCORE.SYSTEM.CONST>
0

>  <SCORE.SYSTEM.DIHEDRAL>
0

>  <SCORE.SYSTEM.SOLV>
0

>  <SCORE.SYSTEM.norm>
0

>  <SCORE.heavy>
23

>  <SCORE.norm>
-1.12363

>  <RMSD>
0.970

$$$$
1uui_lig
 OpenBabel11021811413D
libRbt.so/2013.1/901 2013/11/27
 23 24  0  0  0  0  0  0  0  0999 V2000
  -12.0087    0.2660    2.7765 C   0  0  0  0  0  0  0  0  0  0  0  0
   -9.3546   -0.2082    1.6891 O   0  0  0  0  0  0  0  0  0  0  0  0
  -12.7836    3.3774   -1.1197 O   0  0  0  0  0  0  0  0  0  0  0  0
   -8.4192   -0.8011    0.7794 C   0  0  0  0  0  0  0  0  0  0  0  0
  -12.1700    4.6665   -1.1957 C   0  0  0  0  0  0  0  0  0  0  0  0
  -13.5072    0.2069    2.7983 N   0  0  0  0  0  0  0  0  0  0  0  0
   -7.3525   -1.5517    1.5780 C   0  0  0  0  0  0  0  0  0  0  0  0
  -14.0885    1.4610    3.3496 C   0  0  0  0  0  0  0  0  0  0  0  0
  -13.9815   -0.9530    3.5984 C   0  0  0  0  0  0  0  0  0  0  0  0
   -6.5323   -0.5638    2.4138 C   0  0  0  0  0  0  0  0  0  0  0  0
  -13.6386    1.7151    4.7984 C   0  0  0  0  0  0  0  0  0  0  0  0
  -13.4900   -0.8770    5.0540 C   0  0  0  0  0  0  0  0  0  0  0  0
   -5.4358   -1.2862    3.0968 N   0  0  0  0  0  0  0  0  0  0  0  0
  -13.0284    0.4982    5.4200 N   0  0  0  0  0  0  0  0  0  0  0  0
  -12.1918    0.6562    6.5406 C   0  0  0  0  0  0  0  0  0  0  0  0
  -12.0369    1.8766    7.1285 N   0  0  0  0  0  0  0  0  0  0  0  0
  -11.4152   -0.3749    6.9803 N   0  0  0  0  0  0  0  0  0  0  0  0
  -10.2153    0.6940    0.9882 C   0  0  0  0  0  0  0  0  0  0  0  0
  -11.5226    0.9568    1.4812 C   0  0  0  0  0  0  0  0  0  0  0  0
  -12.3767    1.8514    0.7783 C   0  0  0  0  0  0  0  0  0  0  0  0
  -11.9228    2.4797   -0.4132 C   0  0  0  0  0  0  0  0  0  0  0  0
  -10.6164    2.2162   -0.9023 C   0  0  0  0  0  0  0  0  0  0  0  0
   -9.7635    1.3228   -0.2022 C   0  0  0  0  0  0  0  0  0  0  0  0
  2  4  1  0  0  0  0
  3  5  1  0  0  0  0
  4  7  1  0  0  0  0
  6  1  1  0  0  0  0
  7 10  1  0  0  0  0
  8  6  1  0  0  0  0
  8 11  1  0  0  0  0
  9  6  1  0  0  0  0
 10 13  1  0  0  0  0
 11 14  1  0  0  0  0
 12  9  1  0  0  0  0
 14 12  1  0  0  0  0
 14 15  1  0  0  0  0
 15 16  1  0  0  0  0
 15 17  1  0  0  0  0
 18  2  1  0  0  0  0
 18 23  2  0  0  0  0
 19  1  1  0  0  0  0
 19 18  1  0  0  0  0
 20 19  2  0  0  0  0
 21  3  1  0  0  0  0
 21 20  1  0  0  0  0
 22 21  2  0  0  0  0
 22 23  1  0  0  0  0
M  END
>  <CHROM.1>
169.54094299,-65.00385607,-85.54060732,-175.48796856,-175.82318206,6.07601517
104.28389934,15.28587321,153.07800951,-156.21026623,120.41294417,-11.16822600
0.74556657,2.56639192,2.24100688,-0.40261547,1.96162769

>  <Name>
1uui_lig

>  <RI>
0

>  <Rbt.Current_Directory>
/home/itssahil/PROJECTS/Mol_Feturizer/New_Systems/rnas/1uui

>  <Rbt.Executable>
rbdock ($Id: //depot/dev/client3/rdock/2013.1/src/exe/rbdock.cxx#4 $)

>  <Rbt.Library>
libRbt.so (2013.1, Build901 2013/11/27)

>  <Rbt.Parameter_File>
/export/apps/rDock/src/rDock_2013.1_src/data/scripts/dock_solv.prm

>  <Rbt.Receptor>
prm/pocket_docking_2.prm

>  <SCORE>
-24.4265

>  <SCORE.INTER>
-21.0162

>  <SCORE.INTER.CONST>
1

>  <SCORE.INTER.POLAR>
-2.26274

>  <SCORE.INTER.ROT>
10

>  <SCORE.INTER.SOLV>
8.44123

>  <SCORE.INTER.VDW>
-19.5487

>  <SCORE.INTER.norm>
-0.913746

>  <SCORE.INTRA>
-3.44439

>  <SCORE.INTRA.DIHEDRAL>
-12.3935

>  <SCORE.INTRA.DIHEDRAL.0>
23.4151

>  <SCORE.INTRA.POLAR>
0

>  <SCORE.INTRA.POLAR.0>
0

>  <SCORE.INTRA.REPUL>
0

>  <SCORE.INTRA.REPUL.0>
0

>  <SCORE.INTRA.SOLV>
-0.00950761

>  <SCORE.INTRA.SOLV.lig_0>
-17.3568

>  <SCORE.INTRA.VDW>
2.75709

>  <SCORE.INTRA.VDW.0>
1.0768

>  <SCORE.INTRA.norm>
-0.149756

>  <SCORE.RESTR>
0.0340975

>  <SCORE.RESTR.CAVITY>
0.0340975

>  <SCORE.RESTR.norm>
0.0014825

>  <SCORE.SYSTEM>
0

>  <SCORE.SYSTEM.CONST>
0

>  <SCORE.SYSTEM.DIHEDRAL>
0

>  <SCORE.SYSTEM.SOLV>
0

>  <SCORE.SYSTEM.norm>
0

>  <SCORE.heavy>
23

>  <SCORE.norm>
-1.06202

>  <RMSD>
0.993

$$$$
1uui_lig
 OpenBabel11021811413D
libRbt.so/2013.1/901 2013/11/27
 23 24  0  0  0  0  0  0  0  0999 V2000
  -12.1054    0.2886    2.6639 C   0  0  0  0  0  0  0  0  0  0  0  0
   -9.5345   -0.5192    1.5735 O   0  0  0  0  0  0  0  0  0  0  0  0
  -12.8284    2.8789   -1.6056 O   0  0  0  0  0  0  0  0  0  0  0  0
   -8.1526   -0.2076    1.3555 C   0  0  0  0  0  0  0  0  0  0  0  0
  -13.0785    2.2535   -2.8667 C   0  0  0  0  0  0  0  0  0  0  0  0
  -13.6034    0.2235    2.7001 N   0  0  0  0  0  0  0  0  0  0  0  0
   -7.2950   -1.0525    2.2989 C   0  0  0  0  0  0  0  0  0  0  0  0
  -14.1854    1.4842    3.2356 C   0  0  0  0  0  0  0  0  0  0  0  0
  -14.0655   -0.9249    3.5236 C   0  0  0  0  0  0  0  0  0  0  0  0
   -5.8107   -0.7504    2.0689 C   0  0  0  0  0  0  0  0  0  0  0  0
  -13.7238    1.7644    4.6758 C   0  0  0  0  0  0  0  0  0  0  0  0
  -13.5615   -0.8224    4.9733 C   0  0  0  0  0  0  0  0  0  0  0  0
   -5.0038   -1.4108    3.1193 N   0  0  0  0  0  0  0  0  0  0  0  0
  -13.1027    0.5607    5.3122 N   0  0  0  0  0  0  0  0  0  0  0  0
  -12.2570    0.7409    6.4225 C   0  0  0  0  0  0  0  0  0  0  0  0
  -11.4912   -0.2859    6.8895 N   0  0  0  0  0  0  0  0  0  0  0  0
  -12.2842    1.9021    7.1370 N   0  0  0  0  0  0  0  0  0  0  0  0
  -10.3610    0.3365    0.7792 C   0  0  0  0  0  0  0  0  0  0  0  0
  -11.6271    0.7574    1.2702 C   0  0  0  0  0  0  0  0  0  0  0  0
  -12.4475    1.6048    0.4748 C   0  0  0  0  0  0  0  0  0  0  0  0
  -12.0013    2.0284   -0.8065 C   0  0  0  0  0  0  0  0  0  0  0  0
  -10.7359    1.6075   -1.2934 C   0  0  0  0  0  0  0  0  0  0  0  0
   -9.9167    0.7609   -0.5010 C   0  0  0  0  0  0  0  0  0  0  0  0
  2  4  1  0  0  0  0
  3  5  1  0  0  0  0
  4  7  1  0  0  0  0
  6  1  1  0  0  0  0
  7 10  1  0  0  0  0
  8  6  1  0  0  0  0
  8 11  1  0  0  0  0
  9  6  1  0  0  0  0
 10 13  1  0  0  0  0
 11 14  1  0  0  0  0
 12  9  1  0  0  0  0
 14 12  1  0  0  0  0
 14 15  1  0  0  0  0
 15 16  1  0  0  0  0
 15 17  1  0  0  0  0
 18  2  1  0  0  0  0
 18 23  2  0  0  0  0
 19  1  1  0  0  0  0
 19 18  1  0  0  0  0
 20 19  2  0  0  0  0
 21  3  1  0  0  0  0
 21 20  1  0  0  0  0
 22 21  2  0  0  0  0
 22 23  1  0  0  0  0
M  END
>  <CHROM.1>
175.32913405,179.18143936,-94.18308424,171.36447987,-80.29969334,-168.57773543
9.32061223,-122.02807607,-146.12668538,-151.20117610,-122.86091177,-11.22534631
0.55301815,2.39351552,2.19451967,-0.30154960,1.78139698

>  <Name>
1uui_lig

>  <RI>
0

>  <Rbt.Current_Directory>
/home/itssahil/PROJECTS/Mol_Feturizer/New_Systems/rnas/1uui

>  <Rbt.Executable>
rbdock ($Id: //depot/dev/client3/rdock/2013.1/src/exe/rbdock.cxx#4 $)

>  <Rbt.Library>
libRbt.so (2013.1, Build901 2013/11/27)

>  <Rbt.Parameter_File>
/export/apps/rDock/src/rDock_2013.1_src/data/scripts/dock_solv.prm

>  <Rbt.Receptor>
prm/pocket_docking_2.prm

>  <SCORE>
-23.6626

>  <SCORE.INTER>
-20.641

>  <SCORE.INTER.CONST>
1

>  <SCORE.INTER.POLAR>
-2.23723

>  <SCORE.INTER.ROT>
10

>  <SCORE.INTER.SOLV>
7.94894

>  <SCORE.INTER.VDW>
-19.2195

>  <SCORE.INTER.norm>
-0.897433

>  <SCORE.INTRA>
-3.04711

>  <SCORE.INTRA.DIHEDRAL>
-10.5408

>  <SCORE.INTRA.DIHEDRAL.0>
23.4151

>  <SCORE.INTRA.POLAR>
0

>  <SCORE.INTRA.POLAR.0>
0

>  <SCORE.INTRA.REPUL>
0

>  <SCORE.INTRA.REPUL.0>
0

>  <SCORE.INTRA.SOLV>
-0.095469

>  <SCORE.INTRA.SOLV.lig_0>
-17.3568

>  <SCORE.INTRA.VDW>
2.27103

>  <SCORE.INTRA.VDW.0>
1.0768

>  <SCORE.INTRA.norm>
-0.132483

>  <SCORE.RESTR>
0.0254645

>  <SCORE.RESTR.CAVITY>
0.0254645

>  <SCORE.RESTR.norm>
0.00110715

>  <SCORE.SYSTEM>
0

>  <SCORE.SYSTEM.CONST>
0

>  <SCORE.SYSTEM.DIHEDRAL>
0

>  <SCORE.SYSTEM.SOLV>
0

>  <SCORE.SYSTEM.norm>
0

>  <SCORE.heavy>
23

>  <SCORE.norm>
-1.02881

>  <RMSD>
0.997

$$$$
1uui_lig
 OpenBabel11021811413D
libRbt.so/2013.1/901 2013/11/27
 23 24  0  0  0  0  0  0  0  0999 V2000
  -11.9618    0.0886    2.5930 C   0  0  0  0  0  0  0  0  0  0  0  0
   -9.1152   -0.0540    2.0204 O   0  0  0  0  0  0  0  0  0  0  0  0
  -12.4630    2.6003   -1.7546 O   0  0  0  0  0  0  0  0  0  0  0  0
   -7.9138   -0.4992    1.3782 C   0  0  0  0  0  0  0  0  0  0  0  0
  -12.8037    1.6941   -2.8067 C   0  0  0  0  0  0  0  0  0  0  0  0
  -13.4595    0.1061    2.5148 N   0  0  0  0  0  0  0  0  0  0  0  0
   -7.0577   -1.2601    2.3917 C   0  0  0  0  0  0  0  0  0  0  0  0
  -14.0069    1.4213    2.9451 C   0  0  0  0  0  0  0  0  0  0  0  0
  -14.0477   -0.9733    3.3511 C   0  0  0  0  0  0  0  0  0  0  0  0
   -5.5885   -1.2370    1.9582 C   0  0  0  0  0  0  0  0  0  0  0  0
  -13.6401    1.7477    4.4029 C   0  0  0  0  0  0  0  0  0  0  0  0
  -13.6497   -0.8260    4.8296 C   0  0  0  0  0  0  0  0  0  0  0  0
   -4.7321   -1.6480    3.0933 N   0  0  0  0  0  0  0  0  0  0  0  0
  -13.1391    0.5456    5.1401 N   0  0  0  0  0  0  0  0  0  0  0  0
  -12.3708    0.7351    6.3038 C   0  0  0  0  0  0  0  0  0  0  0  0
  -11.5464   -0.2491    6.7628 N   0  0  0  0  0  0  0  0  0  0  0  0
  -12.5332    1.8507    7.0711 N   0  0  0  0  0  0  0  0  0  0  0  0
   -9.9566    0.6148    1.0766 C   0  0  0  0  0  0  0  0  0  0  0  0
  -11.3553    0.7092    1.3132 C   0  0  0  0  0  0  0  0  0  0  0  0
  -12.1887    1.3715    0.3694 C   0  0  0  0  0  0  0  0  0  0  0  0
  -11.6231    1.9364   -0.8059 C   0  0  0  0  0  0  0  0  0  0  0  0
  -10.2260    1.8416   -1.0387 C   0  0  0  0  0  0  0  0  0  0  0  0
   -9.3934    1.1800   -0.0981 C   0  0  0  0  0  0  0  0  0  0  0  0
  2  4  1  0  0  0  0
  3  5  1  0  0  0  0
  4  7  1  0  0  0  0
  6  1  1  0  0  0  0
  7 10  1  0  0  0  0
  8  6  1  0  0  0  0
  8 11  1  0  0  0  0
  9  6  1  0  0  0  0
 10 13  1  0  0  0  0
 11 14  1  0  0  0  0
 12  9  1  0  0  0  0
 14 12  1  0  0  0  0
 14 15  1  0  0  0  0
 15 16  1  0  0  0  0
 15 17  1  0  0  0  0
 18  2  1  0  0  0  0
 18 23  2  0  0  0  0
 19  1  1  0  0  0  0
 19 18  1  0  0  0  0
 20 19  2  0  0  0  0
 21  3  1  0  0  0  0
 21 20  1  0  0  0  0
 22 21  2  0  0  0  0
 22 23  1  0  0  0  0
M  END
>  <CHROM.1>
-177.69618249,-156.47217103,-83.72010997,165.10843637,157.16508942,-158.72887302
-176.41446837,32.55832594,156.94105664,-170.47607798,-96.68315881,-11.03905301
0.48252338,2.37358157,2.56152058,-0.29496405,1.79226989

>  <Name>
1uui_lig

>  <RI>
0

>  <Rbt.Current_Directory>
/home/itssahil/PROJECTS/Mol_Feturizer/New_Systems/rnas/1uui

>  <Rbt.Executable>
rbdock ($Id: //depot/dev/client3/rdock/2013.1/src/exe/rbdock.cxx#4 $)

>  <Rbt.Library>
libRbt.so (2013.1, Build901 2013/11/27)

>  <Rbt.Parameter_File>
/export/apps/rDock/src/rDock_2013.1_src/data/scripts/dock_solv.prm

>  <Rbt.Receptor>
prm/pocket_docking_2.prm

>  <SCORE>
-20.6361

>  <SCORE.INTER>
-18.6903

>  <SCORE.INTER.CONST>
1

>  <SCORE.INTER.POLAR>
-2.20092

>  <SCORE.INTER.ROT>
10

>  <SCORE.INTER.SOLV>
7.53578

>  <SCORE.INTER.VDW>
-17.9024

>  <SCORE.INTER.norm>
-0.812621

>  <SCORE.INTRA>
-1.97499

>  <SCORE.INTRA.DIHEDRAL>
-8.41239

>  <SCORE.INTRA.DIHEDRAL.0>
23.4151

>  <SCORE.INTRA.POLAR>
0

>  <SCORE.INTRA.POLAR.0>
0

>  <SCORE.INTRA.REPUL>
0

>  <SCORE.INTRA.REPUL.0>
0

>  <SCORE.INTRA.SOLV>
-0.071178

>  <SCORE.INTRA.SOLV.lig_0>
-17.3568

>  <SCORE.INTRA.VDW>
2.2668

>  <SCORE.INTRA.VDW.0>
1.0768

>  <SCORE.INTRA.norm>
-0.085869

>  <SCORE.RESTR>
0.0291608

>  <SCORE.RESTR.CAVITY>
0.0291608

>  <SCORE.RESTR.norm>
0.00126786

>  <SCORE.SYSTEM>
0

>  <SCORE.SYSTEM.CONST>
0

>  <SCORE.SYSTEM.DIHEDRAL>
0

>  <SCORE.SYSTEM.SOLV>
0

>  <SCORE.SYSTEM.norm>
0

>  <SCORE.heavy>
23

>  <SCORE.norm>
-0.897222

>  <RMSD>
1.003

$$$$
1uui_lig
 OpenBabel11021811413D
libRbt.so/2013.1/901 2013/11/27
 23 24  0  0  0  0  0  0  0  0999 V2000
  -11.5256    0.7072    2.2054 C   0  0  0  0  0  0  0  0  0  0  0  0
   -9.4738   -0.5172    0.5493 O   0  0  0  0  0  0  0  0  0  0  0  0
  -11.6620    4.4608   -1.1641 O   0  0  0  0  0  0  0  0  0  0  0  0
   -8.0595   -0.3928    0.7449 C   0  0  0  0  0  0  0  0  0  0  0  0
  -12.9680    4.2449   -1.7043 C   0  0  0  0  0  0  0  0  0  0  0  0
  -12.9557    0.2813    2.0546 N   0  0  0  0  0  0  0  0  0  0  0  0
   -7.4566   -1.7856    0.9339 C   0  0  0  0  0  0  0  0  0  0  0  0
  -13.8851    1.3122    2.5916 C   0  0  0  0  0  0  0  0  0  0  0  0
  -13.1999   -1.0134    2.7435 C   0  0  0  0  0  0  0  0  0  0  0  0
   -6.0080   -1.6679    1.4182 C   0  0  0  0  0  0  0  0  0  0  0  0
  -13.6587    1.5649    4.0919 C   0  0  0  0  0  0  0  0  0  0  0  0
  -12.8895   -0.9231    4.2474 C   0  0  0  0  0  0  0  0  0  0  0  0
   -5.9944   -1.3770    2.8693 N   0  0  0  0  0  0  0  0  0  0  0  0
  -12.8268    0.4936    4.7241 N   0  0  0  0  0  0  0  0  0  0  0  0
  -12.1716    0.7715    5.9382 C   0  0  0  0  0  0  0  0  0  0  0  0
  -11.8418    2.0507    6.2755 N   0  0  0  0  0  0  0  0  0  0  0  0
  -11.7326   -0.2406    6.7397 N   0  0  0  0  0  0  0  0  0  0  0  0
  -10.0216    0.7337    0.1234 C   0  0  0  0  0  0  0  0  0  0  0  0
  -11.0278    1.3703    0.9002 C   0  0  0  0  0  0  0  0  0  0  0  0
  -11.5728    2.6121    0.4703 C   0  0  0  0  0  0  0  0  0  0  0  0
  -11.1115    3.2131   -0.7324 C   0  0  0  0  0  0  0  0  0  0  0  0
  -10.1058    2.5755   -1.5052 C   0  0  0  0  0  0  0  0  0  0  0  0
   -9.5619    1.3357   -1.0777 C   0  0  0  0  0  0  0  0  0  0  0  0
  2  4  1  0  0  0  0
  3  5  1  0  0  0  0
  4  7  1  0  0  0  0
  6  1  1  0  0  0  0
  7 10  1  0  0  0  0
  8  6  1  0  0  0  0
  8 11  1  0  0  0  0
  9  6  1  0  0  0  0
 10 13  1  0  0  0  0
 11 14  1  0  0  0  0
 12  9  1  0  0  0  0
 14 12  1  0  0  0  0
 14 15  1  0  0  0  0
 15 16  1  0  0  0  0
 15 17  1  0  0  0  0
 18  2  1  0  0  0  0
 18 23  2  0  0  0  0
 19  1  1  0  0  0  0
 19 18  1  0  0  0  0
 20 19  2  0  0  0  0
 21  3  1  0  0  0  0
 21 20  1  0  0  0  0
 22 21  2  0  0  0  0
 22 23  1  0  0  0  0
M  END
>  <CHROM.1>
-169.19401371,-168.80113544,-95.49873090,79.04921103,-174.71052252,-25.60043252
0.86814939,33.58708068,-120.56492354,-113.27254532,-75.30385668,-10.92046660
0.83534408,1.96421650,2.15621247,-0.51154598,2.04874357

>  <Name>
1uui_lig

>  <RI>
0

>  <Rbt.Current_Directory>
/home/itssahil/PROJECTS/Mol_Feturizer/New_Systems/rnas/1uui

>  <Rbt.Executable>
rbdock ($Id: //depot/dev/client3/rdock/2013.1/src/exe/rbdock.cxx#4 $)

>  <Rbt.Library>
libRbt.so (2013.1, Build901 2013/11/27)

>  <Rbt.Parameter_File>
/export/apps/rDock/src/rDock_2013.1_src/data/scripts/dock_solv.prm

>  <Rbt.Receptor>
prm/pocket_docking_2.prm

>  <SCORE>
-21.1442

>  <SCORE.INTER>
-17.1189

>  <SCORE.INTER.CONST>
1

>  <SCORE.INTER.POLAR>
-2.26274

>  <SCORE.INTER.ROT>
10

>  <SCORE.INTER.SOLV>
7.10427

>  <SCORE.INTER.VDW>
-16.5049

>  <SCORE.INTER.norm>
-0.744302

>  <SCORE.INTRA>
-4.05569

>  <SCORE.INTRA.DIHEDRAL>
-6.19076

>  <SCORE.INTRA.DIHEDRAL.0>
23.4151

>  <SCORE.INTRA.POLAR>
0

>  <SCORE.INTRA.POLAR.0>
0

>  <SCORE.INTRA.REPUL>
0

>  <SCORE.INTRA.REPUL.0>
0

>  <SCORE.INTRA.SOLV>
0.0612225

>  <SCORE.INTRA.SOLV.lig_0>
-17.3568

>  <SCORE.INTRA.VDW>
-0.99092

>  <SCORE.INTRA.VDW.0>
1.0768

>  <SCORE.INTRA.norm>
-0.176334

>  <SCORE.RESTR>
0.0304415

>  <SCORE.RESTR.CAVITY>
0.0304415

>  <SCORE.RESTR.norm>
0.00132354

>  <SCORE.SYSTEM>
0

>  <SCORE.SYSTEM.CONST>
0

>  <SCORE.SYSTEM.DIHEDRAL>
0

>  <SCORE.SYSTEM.SOLV>
0

>  <SCORE.SYSTEM.norm>
0

>  <SCORE.heavy>
23

>  <SCORE.norm>
-0.919313

>  <RMSD>
1.015

$$$$
1uui_lig
 OpenBabel11021811413D
libRbt.so/2013.1/901 2013/11/27
 23 24  0  0  0  0  0  0  0  0999 V2000
  -11.6441    1.0800    2.6122 C   0  0  0  0  0  0  0  0  0  0  0  0
   -8.9887   -0.0160    2.1658 O   0  0  0  0  0  0  0  0  0  0  0  0
  -11.6643    2.3746   -2.2648 O   0  0  0  0  0  0  0  0  0  0  0  0
   -7.9194   -0.8480    1.6986 C   0  0  0  0  0  0  0  0  0  0  0  0
  -12.6824    1.4897   -2.7388 C   0  0  0  0  0  0  0  0  0  0  0  0
  -13.0358    0.5370    2.4793 N   0  0  0  0  0  0  0  0  0  0  0  0
   -6.5915   -0.2930    2.2162 C   0  0  0  0  0  0  0  0  0  0  0  0
  -14.0207    1.3974    3.1895 C   0  0  0  0  0  0  0  0  0  0  0  0
  -13.1175   -0.8503    3.0077 C   0  0  0  0  0  0  0  0  0  0  0  0
   -5.4510   -1.2553    1.8694 C   0  0  0  0  0  0  0  0  0  0  0  0
  -13.7264    1.4849    4.6967 C   0  0  0  0  0  0  0  0  0  0  0  0
  -12.7244   -0.9154    4.4934 C   0  0  0  0  0  0  0  0  0  0  0  0
   -4.7673   -1.6791    3.1118 N   0  0  0  0  0  0  0  0  0  0  0  0
  -12.7624    0.4312    5.1442 N   0  0  0  0  0  0  0  0  0  0  0  0
  -12.0617    0.6210    6.3498 C   0  0  0  0  0  0  0  0  0  0  0  0
  -11.8743    1.8724    6.8576 N   0  0  0  0  0  0  0  0  0  0  0  0
  -11.4403   -0.4249    6.9658 N   0  0  0  0  0  0  0  0  0  0  0  0
   -9.6604    0.5878    1.0565 C   0  0  0  0  0  0  0  0  0  0  0  0
  -10.9608    1.1367    1.2262 C   0  0  0  0  0  0  0  0  0  0  0  0
  -11.6267    1.7321    0.1190 C   0  0  0  0  0  0  0  0  0  0  0  0
  -10.9925    1.7772   -1.1522 C   0  0  0  0  0  0  0  0  0  0  0  0
   -9.6934    1.2293   -1.3182 C   0  0  0  0  0  0  0  0  0  0  0  0
   -9.0283    0.6339   -0.2142 C   0  0  0  0  0  0  0  0  0  0  0  0
  2  4  1  0  0  0  0
  3  5  1  0  0  0  0
  4  7  1  0  0  0  0
  6  1  1  0  0  0  0
  7 10  1  0  0  0  0
  8  6  1  0  0  0  0
  8 11  1  0  0  0  0
  9  6  1  0  0  0  0
 10 13  1  0  0  0  0
 11 14  1  0  0  0  0
 12  9  1  0  0  0  0
 14 12  1  0  0  0  0
 14 15  1  0  0  0  0
 15 16  1  0  0  0  0
 15 17  1  0  0  0  0
 18  2  1  0  0  0  0
 18 23  2  0  0  0  0
 19  1  1  0  0  0  0
 19 18  1  0  0  0  0
 20 19  2  0  0  0  0
 21  3  1  0  0  0  0
 21 20  1  0  0  0  0
 22 21  2  0  0  0  0
 22 23  1  0  0  0  0
M  END
>  <CHROM.1>
117.13822071,173.35763457,-131.01739898,-121.82603264,-179.34422717,-23.09800365
106.10162982,179.80618059,162.09891175,-130.34430433,-75.27925926,-10.68171173
0.50028526,2.31416985,2.25400894,-0.29924406,1.76725042

>  <Name>
1uui_lig

>  <RI>
0

>  <Rbt.Current_Directory>
/home/itssahil/PROJECTS/Mol_Feturizer/New_Systems/rnas/1uui

>  <Rbt.Executable>
rbdock ($Id: //depot/dev/client3/rdock/2013.1/src/exe/rbdock.cxx#4 $)

>  <Rbt.Library>
libRbt.so (2013.1, Build901 2013/11/27)

>  <Rbt.Parameter_File>
/export/apps/rDock/src/rDock_2013.1_src/data/scripts/dock_solv.prm

>  <Rbt.Receptor>
prm/pocket_docking_2.prm

>  <SCORE>
-17.3583

>  <SCORE.INTER>
-20.7679

>  <SCORE.INTER.CONST>
1

>  <SCORE.INTER.POLAR>
-2.25714

>  <SCORE.INTER.ROT>
10

>  <SCORE.INTER.SOLV>
8.03426

>  <SCORE.INTER.VDW>
-19.2662

>  <SCORE.INTER.norm>
-0.90295

>  <SCORE.INTRA>
3.38553

>  <SCORE.INTRA.DIHEDRAL>
2.01588

>  <SCORE.INTRA.DIHEDRAL.0>
23.4151

>  <SCORE.INTRA.POLAR>
0

>  <SCORE.INTRA.POLAR.0>
0

>  <SCORE.INTRA.REPUL>
0

>  <SCORE.INTRA.REPUL.0>
0

>  <SCORE.INTRA.SOLV>
-0.0331266

>  <SCORE.INTRA.SOLV.lig_0>
-17.3568

>  <SCORE.INTRA.VDW>
2.39416

>  <SCORE.INTRA.VDW.0>
1.0768

>  <SCORE.INTRA.norm>
0.147197

>  <SCORE.RESTR>
0.0239937

>  <SCORE.RESTR.CAVITY>
0.0239937

>  <SCORE.RESTR.norm>
0.0010432

>  <SCORE.SYSTEM>
0

>  <SCORE.SYSTEM.CONST>
0

>  <SCORE.SYSTEM.DIHEDRAL>
0

>  <SCORE.SYSTEM.SOLV>
0

>  <SCORE.SYSTEM.norm>
0

>  <SCORE.heavy>
23

>  <SCORE.norm>
-0.75471

>  <RMSD>
1.015

$$$$
1uui_lig
 OpenBabel11021811413D
libRbt.so/2013.1/901 2013/11/27
 23 24  0  0  0  0  0  0  0  0999 V2000
  -11.3265    0.3180    1.7176 C   0  0  0  0  0  0  0  0  0  0  0  0
   -8.6366   -0.4300    0.9074 O   0  0  0  0  0  0  0  0  0  0  0  0
  -11.7374    2.6976   -2.7131 O   0  0  0  0  0  0  0  0  0  0  0  0
   -7.9345   -1.4525    0.1893 C   0  0  0  0  0  0  0  0  0  0  0  0
  -11.4279    4.0822   -2.5372 C   0  0  0  0  0  0  0  0  0  0  0  0
  -12.7409   -0.1494    1.5429 N   0  0  0  0  0  0  0  0  0  0  0  0
   -7.1251   -2.2921    1.1788 C   0  0  0  0  0  0  0  0  0  0  0  0
  -13.7049    0.9704    1.7206 C   0  0  0  0  0  0  0  0  0  0  0  0
  -13.0630   -1.2379    2.5030 C   0  0  0  0  0  0  0  0  0  0  0  0
   -6.1223   -1.4037    1.9218 C   0  0  0  0  0  0  0  0  0  0  0  0
  -13.6174    1.5869    3.1271 C   0  0  0  0  0  0  0  0  0  0  0  0
  -12.8939   -0.7770    3.9608 C   0  0  0  0  0  0  0  0  0  0  0  0
   -5.0770   -0.9443    0.9801 N   0  0  0  0  0  0  0  0  0  0  0  0
  -12.8603    0.7141    4.0783 N   0  0  0  0  0  0  0  0  0  0  0  0
  -12.3187    1.2899    5.2426 C   0  0  0  0  0  0  0  0  0  0  0  0
  -12.5032    0.7050    6.4603 N   0  0  0  0  0  0  0  0  0  0  0  0
  -11.7146    2.5117    5.1987 N   0  0  0  0  0  0  0  0  0  0  0  0
   -9.4151    0.3579    0.0022 C   0  0  0  0  0  0  0  0  0  0  0  0
  -10.7363    0.7474    0.3544 C   0  0  0  0  0  0  0  0  0  0  0  0
  -11.5083    1.5273   -0.5510 C   0  0  0  0  0  0  0  0  0  0  0  0
  -10.9590    1.9150   -1.8032 C   0  0  0  0  0  0  0  0  0  0  0  0
   -9.6390    1.5256   -2.1514 C   0  0  0  0  0  0  0  0  0  0  0  0
   -8.8679    0.7463   -1.2492 C   0  0  0  0  0  0  0  0  0  0  0  0
  2  4  1  0  0  0  0
  3  5  1  0  0  0  0
  4  7  1  0  0  0  0
  6  1  1  0  0  0  0
  7 10  1  0  0  0  0
  8  6  1  0  0  0  0
  8 11  1  0  0  0  0
  9  6  1  0  0  0  0
 10 13  1  0  0  0  0
 11 14  1  0  0  0  0
 12  9  1  0  0  0  0
 14 12  1  0  0  0  0
 14 15  1  0  0  0  0
 15 16  1  0  0  0  0
 15 17  1  0  0  0  0
 18  2  1  0  0  0  0
 18 23  2  0  0  0  0
 19  1  1  0  0  0  0
 19 18  1  0  0  0  0
 20 19  2  0  0  0  0
 21  3  1  0  0  0  0
 21 20  1  0  0  0  0
 22 21  2  0  0  0  0
 22 23  1  0  0  0  0
M  END
>  <CHROM.1>
-179.25937531,-59.72592847,-91.23716928,-68.66485951,-176.32088781,131.91191293
-87.55334921,147.61302391,137.88149448,-136.51997570,95.11601663,-10.66490235
0.56437691,1.36527212,2.45058096,-0.45193879,1.92011510

>  <Name>
1uui_lig

>  <RI>
0

>  <Rbt.Current_Directory>
/home/itssahil/PROJECTS/Mol_Feturizer/New_Systems/rnas/1uui

>  <Rbt.Executable>
rbdock ($Id: //depot/dev/client3/rdock/2013.1/src/exe/rbdock.cxx#4 $)

>  <Rbt.Library>
libRbt.so (2013.1, Build901 2013/11/27)

>  <Rbt.Parameter_File>
/export/apps/rDock/src/rDock_2013.1_src/data/scripts/dock_solv.prm

>  <Rbt.Receptor>
prm/pocket_docking_2.prm

>  <SCORE>
-9.90758

>  <SCORE.INTER>
-4.58752

>  <SCORE.INTER.CONST>
1

>  <SCORE.INTER.POLAR>
0

>  <SCORE.INTER.ROT>
10

>  <SCORE.INTER.SOLV>
5.55788

>  <SCORE.INTER.VDW>
-15.1776

>  <SCORE.INTER.norm>
-0.199458

>  <SCORE.INTRA>
-5.32006

>  <SCORE.INTRA.DIHEDRAL>
-9.94634

>  <SCORE.INTRA.DIHEDRAL.0>
23.4151

>  <SCORE.INTRA.POLAR>
0

>  <SCORE.INTRA.POLAR.0>
0

>  <SCORE.INTRA.REPUL>
0

>  <SCORE.INTRA.REPUL.0>
0

>  <SCORE.INTRA.SOLV>
0.228808

>  <SCORE.INTRA.SOLV.lig_0>
-17.3568

>  <SCORE.INTRA.VDW>
-0.461295

>  <SCORE.INTRA.VDW.0>
1.0768

>  <SCORE.INTRA.norm>
-0.231307

>  <SCORE.RESTR>
0

>  <SCORE.RESTR.CAVITY>
0

>  <SCORE.RESTR.norm>
0

>  <SCORE.SYSTEM>
0

>  <SCORE.SYSTEM.CONST>
0

>  <SCORE.SYSTEM.DIHEDRAL>
0

>  <SCORE.SYSTEM.SOLV>
0

>  <SCORE.SYSTEM.norm>
0

>  <SCORE.heavy>
23

>  <SCORE.norm>
-0.430764

>  <RMSD>
1.019

$$$$
1uui_lig
 OpenBabel11021811413D
libRbt.so/2013.1/901 2013/11/27
 23 24  0  0  0  0  0  0  0  0999 V2000
  -11.6902    0.1256    1.4278 C   0  0  0  0  0  0  0  0  0  0  0  0
   -8.9628   -0.7913    1.0131 O   0  0  0  0  0  0  0  0  0  0  0  0
  -11.1537    2.8566   -2.7812 O   0  0  0  0  0  0  0  0  0  0  0  0
   -7.5339   -0.6826    1.0295 C   0  0  0  0  0  0  0  0  0  0  0  0
  -10.9981    4.1956   -2.3046 C   0  0  0  0  0  0  0  0  0  0  0  0
  -13.1509    0.2323    1.1047 N   0  0  0  0  0  0  0  0  0  0  0  0
   -6.9736   -1.6193    2.1009 C   0  0  0  0  0  0  0  0  0  0  0  0
  -13.7188    1.5186    1.5922 C   0  0  0  0  0  0  0  0  0  0  0  0
  -13.9101   -0.9007    1.6966 C   0  0  0  0  0  0  0  0  0  0  0  0
   -5.4600   -1.7742    1.9216 C   0  0  0  0  0  0  0  0  0  0  0  0
  -13.5961    1.6595    3.1190 C   0  0  0  0  0  0  0  0  0  0  0  0
  -13.7662   -0.9416    3.2276 C   0  0  0  0  0  0  0  0  0  0  0  0
   -5.1847   -2.5309    0.6798 N   0  0  0  0  0  0  0  0  0  0  0  0
  -13.2699    0.3571    3.7801 N   0  0  0  0  0  0  0  0  0  0  0  0
  -12.7061    0.3735    5.0694 C   0  0  0  0  0  0  0  0  0  0  0  0
  -12.5575   -0.7806    5.7800 N   0  0  0  0  0  0  0  0  0  0  0  0
  -12.4207    1.5541    5.6894 N   0  0  0  0  0  0  0  0  0  0  0  0
   -9.5133    0.1270    0.0645 C   0  0  0  0  0  0  0  0  0  0  0  0
  -10.8434    0.6027    0.2252 C   0  0  0  0  0  0  0  0  0  0  0  0
  -11.3882    1.5124   -0.7233 C   0  0  0  0  0  0  0  0  0  0  0  0
  -10.6037    1.9434   -1.8275 C   0  0  0  0  0  0  0  0  0  0  0  0
   -9.2754    1.4675   -1.9844 C   0  0  0  0  0  0  0  0  0  0  0  0
   -8.7311    0.5588   -1.0391 C   0  0  0  0  0  0  0  0  0  0  0  0
  2  4  1  0  0  0  0
  3  5  1  0  0  0  0
  4  7  1  0  0  0  0
  6  1  1  0  0  0  0
  7 10  1  0  0  0  0
  8  6  1  0  0  0  0
  8 11  1  0  0  0  0
  9  6  1  0  0  0  0
 10 13  1  0  0  0  0
 11 14  1  0  0  0  0
 12  9  1  0  0  0  0
 14 12  1  0  0  0  0
 14 15  1  0  0  0  0
 15 16  1  0  0  0  0
 15 17  1  0  0  0  0
 18  2  1  0  0  0  0
 18 23  2  0  0  0  0
 19  1  1  0  0  0  0
 19 18  1  0  0  0  0
 20 19  2  0  0  0  0
 21  3  1  0  0  0  0
 21 20  1  0  0  0  0
 22 21  2  0  0  0  0
 22 23  1  0  0  0  0
M  END
>  <CHROM.1>
177.06493685,166.70324072,-94.74649636,-68.79108840,-173.61532483,171.23362763
-80.25185854,-75.41894861,-154.57579372,-155.20427672,84.26285804,-10.73588656
0.36785943,1.30832471,2.67251983,-0.40681223,2.04590958

>  <Name>
1uui_lig

>  <RI>
0

>  <Rbt.Current_Directory>
/home/itssahil/PROJECTS/Mol_Feturizer/New_Systems/rnas/1uui

>  <Rbt.Executable>
rbdock ($Id: //depot/dev/client3/rdock/2013.1/src/exe/rbdock.cxx#4 $)

>  <Rbt.Library>
libRbt.so (2013.1, Build901 2013/11/27)

>  <Rbt.Parameter_File>
/export/apps/rDock/src/rDock_2013.1_src/data/scripts/dock_solv.prm

>  <Rbt.Receptor>
prm/pocket_docking_2.prm

>  <SCORE>
-17.2531

>  <SCORE.INTER>
-14.6519

>  <SCORE.INTER.CONST>
1

>  <SCORE.INTER.POLAR>
-2.12453

>  <SCORE.INTER.ROT>
10

>  <SCORE.INTER.SOLV>
6.24142

>  <SCORE.INTER.VDW>
-15.0333

>  <SCORE.INTER.norm>
-0.637038

>  <SCORE.INTRA>
-3.15328

>  <SCORE.INTRA.DIHEDRAL>
-10.0679

>  <SCORE.INTRA.DIHEDRAL.0>
23.4151

>  <SCORE.INTRA.POLAR>
0

>  <SCORE.INTRA.POLAR.0>
0

>  <SCORE.INTRA.REPUL>
0

>  <SCORE.INTRA.REPUL.0>
0

>  <SCORE.INTRA.SOLV>
0.0103533

>  <SCORE.INTRA.SOLV.lig_0>
-17.3568

>  <SCORE.INTRA.VDW>
1.8755

>  <SCORE.INTRA.VDW.0>
1.0768

>  <SCORE.INTRA.norm>
-0.137099

>  <SCORE.RESTR>
0.552041

>  <SCORE.RESTR.CAVITY>
0.552041

>  <SCORE.RESTR.norm>
0.0240018

>  <SCORE.SYSTEM>
0

>  <SCORE.SYSTEM.CONST>
0

>  <SCORE.SYSTEM.DIHEDRAL>
0

>  <SCORE.SYSTEM.SOLV>
0

>  <SCORE.SYSTEM.norm>
0

>  <SCORE.heavy>
23

>  <SCORE.norm>
-0.750135

>  <RMSD>
1.043

$$$$
1uui_lig
 OpenBabel11021811413D
libRbt.so/2013.1/901 2013/11/27
 23 24  0  0  0  0  0  0  0  0999 V2000
  -11.8842    0.9801    2.1816 C   0  0  0  0  0  0  0  0  0  0  0  0
   -9.4550   -0.2429    1.1544 O   0  0  0  0  0  0  0  0  0  0  0  0
  -12.1309    3.5535   -2.1518 O   0  0  0  0  0  0  0  0  0  0  0  0
   -8.1937    0.2821    1.5874 C   0  0  0  0  0  0  0  0  0  0  0  0
  -13.0939    2.8793   -2.9655 C   0  0  0  0  0  0  0  0  0  0  0  0
  -13.3049    0.5156    2.0578 N   0  0  0  0  0  0  0  0  0  0  0  0
   -7.3620   -0.8503    2.1918 C   0  0  0  0  0  0  0  0  0  0  0  0
  -14.2412    1.4592    2.7268 C   0  0  0  0  0  0  0  0  0  0  0  0
  -13.4720   -0.8432    2.6376 C   0  0  0  0  0  0  0  0  0  0  0  0
   -7.0140   -1.8788    1.1110 C   0  0  0  0  0  0  0  0  0  0  0  0
  -13.9512    1.5867    4.2320 C   0  0  0  0  0  0  0  0  0  0  0  0
  -13.0924   -0.8746    4.1280 C   0  0  0  0  0  0  0  0  0  0  0  0
   -5.8666   -2.6985    1.5604 N   0  0  0  0  0  0  0  0  0  0  0  0
  -13.0542    0.4958    4.7270 N   0  0  0  0  0  0  0  0  0  0  0  0
  -12.3507    0.6898    5.9303 C   0  0  0  0  0  0  0  0  0  0  0  0
  -12.0463    1.9457    6.3652 N   0  0  0  0  0  0  0  0  0  0  0  0
  -11.8416   -0.3720    6.6179 N   0  0  0  0  0  0  0  0  0  0  0  0
  -10.1260    0.7128    0.3282 C   0  0  0  0  0  0  0  0  0  0  0  0
  -11.3180    1.3368    0.7876 C   0  0  0  0  0  0  0  0  0  0  0  0
  -11.9843    2.2833   -0.0395 C   0  0  0  0  0  0  0  0  0  0  0  0
  -11.4585    2.6030   -1.3208 C   0  0  0  0  0  0  0  0  0  0  0  0
  -10.2674    1.9791   -1.7761 C   0  0  0  0  0  0  0  0  0  0  0  0
   -9.6022    1.0336   -0.9520 C   0  0  0  0  0  0  0  0  0  0  0  0
  2  4  1  0  0  0  0
  3  5  1  0  0  0  0
  4  7  1  0  0  0  0
  6  1  1  0  0  0  0
  7 10  1  0  0  0  0
  8  6  1  0  0  0  0
  8 11  1  0  0  0  0
  9  6  1  0  0  0  0
 10 13  1  0  0  0  0
 11 14  1  0  0  0  0
 12  9  1  0  0  0  0
 14 12  1  0  0  0  0
 14 15  1  0  0  0  0
 15 16  1  0  0  0  0
 15 17  1  0  0  0  0
 18  2  1  0  0  0  0
 18 23  2  0  0  0  0
 19  1  1  0  0  0  0
 19 18  1  0  0  0  0
 20 19  2  0  0  0  0
 21  3  1  0  0  0  0
 21 20  1  0  0  0  0
 22 21  2  0  0  0  0
 22 23  1  0  0  0  0
M  END
>  <CHROM.1>
-167.24770663,65.32045507,-114.63012640,160.98659276,38.09406474,-25.70377575
-66.40503622,-143.77355496,-112.26338195,-124.43181480,-89.37876995,-11.14865007
0.68086187,1.84881682,2.04900533,-0.47129414,1.91847141

>  <Name>
1uui_lig

>  <RI>
0

>  <Rbt.Current_Directory>
/home/itssahil/PROJECTS/Mol_Feturizer/New_Systems/rnas/1uui

>  <Rbt.Executable>
rbdock ($Id: //depot/dev/client3/rdock/2013.1/src/exe/rbdock.cxx#4 $)

>  <Rbt.Library>
libRbt.so (2013.1, Build901 2013/11/27)

>  <Rbt.Parameter_File>
/export/apps/rDock/src/rDock_2013.1_src/data/scripts/dock_solv.prm

>  <Rbt.Receptor>
prm/pocket_docking_2.prm

>  <SCORE>
-25.3066

>  <SCORE.INTER>
-22.3326

>  <SCORE.INTER.CONST>
1

>  <SCORE.INTER.POLAR>
-2.90759

>  <SCORE.INTER.ROT>
10

>  <SCORE.INTER.SOLV>
6.89174

>  <SCORE.INTER.VDW>
-17.7604

>  <SCORE.INTER.norm>
-0.970984

>  <SCORE.INTRA>
-3.13425

>  <SCORE.INTRA.DIHEDRAL>
-3.34352

>  <SCORE.INTRA.DIHEDRAL.0>
23.4151

>  <SCORE.INTRA.POLAR>
0

>  <SCORE.INTRA.POLAR.0>
0

>  <SCORE.INTRA.REPUL>
0

>  <SCORE.INTRA.REPUL.0>
0

>  <SCORE.INTRA.SOLV>
-0.0161786

>  <SCORE.INTRA.SOLV.lig_0>
-17.3568

>  <SCORE.INTRA.VDW>
-1.4544

>  <SCORE.INTRA.VDW.0>
1.0768

>  <SCORE.INTRA.norm>
-0.136272

>  <SCORE.RESTR>
0.160233

>  <SCORE.RESTR.CAVITY>
0.160233

>  <SCORE.RESTR.norm>
0.00696665

>  <SCORE.SYSTEM>
0

>  <SCORE.SYSTEM.CONST>
0

>  <SCORE.SYSTEM.DIHEDRAL>
0

>  <SCORE.SYSTEM.SOLV>
0

>  <SCORE.SYSTEM.norm>
0

>  <SCORE.heavy>
23

>  <SCORE.norm>
-1.10029

>  <RMSD>
1.072

$$$$
1uui_lig
 OpenBabel11021811413D
libRbt.so/2013.1/901 2013/11/27
 23 24  0  0  0  0  0  0  0  0999 V2000
  -11.7558    0.5707    2.9665 C   0  0  0  0  0  0  0  0  0  0  0  0
   -9.5151   -0.9872    1.9648 O   0  0  0  0  0  0  0  0  0  0  0  0
  -12.0238    2.6763   -1.6113 O   0  0  0  0  0  0  0  0  0  0  0  0
   -8.0940   -0.8031    1.9412 C   0  0  0  0  0  0  0  0  0  0  0  0
  -11.2497    3.8757   -1.6903 C   0  0  0  0  0  0  0  0  0  0  0  0
  -13.2498    0.4390    2.9753 N   0  0  0  0  0  0  0  0  0  0  0  0
   -7.4991   -1.6491    0.8144 C   0  0  0  0  0  0  0  0  0  0  0  0
  -13.8867    1.5693    3.7045 C   0  0  0  0  0  0  0  0  0  0  0  0
  -13.6660   -0.8473    3.5938 C   0  0  0  0  0  0  0  0  0  0  0  0
   -5.9694   -1.6298    0.8968 C   0  0  0  0  0  0  0  0  0  0  0  0
  -13.4430    1.6271    5.1761 C   0  0  0  0  0  0  0  0  0  0  0  0
  -13.1724   -0.9644    5.0460 C   0  0  0  0  0  0  0  0  0  0  0  0
   -5.4993   -2.8257    1.6312 N   0  0  0  0  0  0  0  0  0  0  0  0
  -12.7740    0.3616    5.6126 N   0  0  0  0  0  0  0  0  0  0  0  0
  -11.9409    0.3912    6.7465 C   0  0  0  0  0  0  0  0  0  0  0  0
  -11.8736    1.5026    7.5333 N   0  0  0  0  0  0  0  0  0  0  0  0
  -11.0838   -0.6369    7.0074 N   0  0  0  0  0  0  0  0  0  0  0  0
  -10.1437   -0.0645    1.0705 C   0  0  0  0  0  0  0  0  0  0  0  0
  -11.2437    0.7188    1.5150 C   0  0  0  0  0  0  0  0  0  0  0  0
  -11.8685    1.6317    0.6206 C   0  0  0  0  0  0  0  0  0  0  0  0
  -11.3932    1.7592   -0.7129 C   0  0  0  0  0  0  0  0  0  0  0  0
  -10.2937    0.9765   -1.1533 C   0  0  0  0  0  0  0  0  0  0  0  0
   -9.6701    0.0642   -0.2620 C   0  0  0  0  0  0  0  0  0  0  0  0
  2  4  1  0  0  0  0
  3  5  1  0  0  0  0
  4  7  1  0  0  0  0
  6  1  1  0  0  0  0
  7 10  1  0  0  0  0
  8  6  1  0  0  0  0
  8 11  1  0  0  0  0
  9  6  1  0  0  0  0
 10 13  1  0  0  0  0
 11 14  1  0  0  0  0
 12  9  1  0  0  0  0
 14 12  1  0  0  0  0
 14 15  1  0  0  0  0
 15 16  1  0  0  0  0
 15 17  1  0  0  0  0
 18  2  1  0  0  0  0
 18 23  2  0  0  0  0
 19  1  1  0  0  0  0
 19 18  1  0  0  0  0
 20 19  2  0  0  0  0
 21  3  1  0  0  0  0
 21 20  1  0  0  0  0
 22 21  2  0  0  0  0
 22 23  1  0  0  0  0
M  END
>  <CHROM.1>
-87.10211944,-171.80261537,-117.51530933,95.88710129,60.59710294,8.20587509
72.53346802,-15.45716268,-130.67942019,-132.76969373,99.97102364,-10.88702158
0.31024344,2.46780295,2.30965050,-0.54188923,1.90594353

>  <Name>
1uui_lig

>  <RI>
0

>  <Rbt.Current_Directory>
/home/itssahil/PROJECTS/Mol_Feturizer/New_Systems/rnas/1uui

>  <Rbt.Executable>
rbdock ($Id: //depot/dev/client3/rdock/2013.1/src/exe/rbdock.cxx#4 $)

>  <Rbt.Library>
libRbt.so (2013.1, Build901 2013/11/27)

>  <Rbt.Parameter_File>
/export/apps/rDock/src/rDock_2013.1_src/data/scripts/dock_solv.prm

>  <Rbt.Receptor>
prm/pocket_docking_2.prm

>  <SCORE>
-26.8307

>  <SCORE.INTER>
-27.3825

>  <SCORE.INTER.CONST>
1

>  <SCORE.INTER.POLAR>
-3.63204

>  <SCORE.INTER.ROT>
10

>  <SCORE.INTER.SOLV>
10.0798

>  <SCORE.INTER.VDW>
-19.7748

>  <SCORE.INTER.norm>
-1.19055

>  <SCORE.INTRA>
-0.209505

>  <SCORE.INTRA.DIHEDRAL>
-1.24524

>  <SCORE.INTRA.DIHEDRAL.0>
23.4151

>  <SCORE.INTRA.POLAR>
0

>  <SCORE.INTRA.POLAR.0>
0

>  <SCORE.INTRA.REPUL>
0

>  <SCORE.INTRA.REPUL.0>
0

>  <SCORE.INTRA.SOLV>
-0.0142652

>  <SCORE.INTRA.SOLV.lig_0>
-17.3568

>  <SCORE.INTRA.VDW>
0.42025

>  <SCORE.INTRA.VDW.0>
1.0768

>  <SCORE.INTRA.norm>
-0.00910889

>  <SCORE.RESTR>
0.761321

>  <SCORE.RESTR.CAVITY>
0.761321

>  <SCORE.RESTR.norm>
0.0331009

>  <SCORE.SYSTEM>
0

>  <SCORE.SYSTEM.CONST>
0

>  <SCORE.SYSTEM.DIHEDRAL>
0

>  <SCORE.SYSTEM.SOLV>
0

>  <SCORE.SYSTEM.norm>
0

>  <SCORE.heavy>
23

>  <SCORE.norm>
-1.16655

>  <RMSD>
1.086

$$$$
1uui_lig
 OpenBabel11021811413D
libRbt.so/2013.1/901 2013/11/27
 23 24  0  0  0  0  0  0  0  0999 V2000
  -11.5973    0.4292    2.0233 C   0  0  0  0  0  0  0  0  0  0  0  0
   -8.7366    0.1122    1.6144 O   0  0  0  0  0  0  0  0  0  0  0  0
  -11.7825    2.4784   -2.5841 O   0  0  0  0  0  0  0  0  0  0  0  0
   -7.5996   -0.5679    1.0678 C   0  0  0  0  0  0  0  0  0  0  0  0
  -12.6408    1.4922   -3.1626 C   0  0  0  0  0  0  0  0  0  0  0  0
  -12.9955   -0.0289    1.7326 N   0  0  0  0  0  0  0  0  0  0  0  0
   -6.7704   -1.1541    2.2115 C   0  0  0  0  0  0  0  0  0  0  0  0
  -13.9648    1.0953    1.8394 C   0  0  0  0  0  0  0  0  0  0  0  0
  -13.3995   -1.1213    2.6568 C   0  0  0  0  0  0  0  0  0  0  0  0
   -5.4445   -1.6991    1.6712 C   0  0  0  0  0  0  0  0  0  0  0  0
  -13.9873    1.7029    3.2523 C   0  0  0  0  0  0  0  0  0  0  0  0
  -13.3456   -0.6700    4.1263 C   0  0  0  0  0  0  0  0  0  0  0  0
   -4.5608   -2.0593    2.8025 N   0  0  0  0  0  0  0  0  0  0  0  0
  -13.3137    0.8202    4.2556 N   0  0  0  0  0  0  0  0  0  0  0  0
  -12.8644    1.3859    5.4633 C   0  0  0  0  0  0  0  0  0  0  0  0
  -11.8584    2.3061    5.4704 N   0  0  0  0  0  0  0  0  0  0  0  0
  -13.3299    0.9299    6.6612 N   0  0  0  0  0  0  0  0  0  0  0  0
   -9.5022    0.7091    0.5639 C   0  0  0  0  0  0  0  0  0  0  0  0
  -10.9047    0.8843    0.7178 C   0  0  0  0  0  0  0  0  0  0  0  0
  -11.6627    1.4744   -0.3315 C   0  0  0  0  0  0  0  0  0  0  0  0
  -11.0184    1.8870   -1.5294 C   0  0  0  0  0  0  0  0  0  0  0  0
   -9.6176    1.7119   -1.6796 C   0  0  0  0  0  0  0  0  0  0  0  0
   -8.8602    1.1221   -0.6335 C   0  0  0  0  0  0  0  0  0  0  0  0
  2  4  1  0  0  0  0
  3  5  1  0  0  0  0
  4  7  1  0  0  0  0
  6  1  1  0  0  0  0
  7 10  1  0  0  0  0
  8  6  1  0  0  0  0
  8 11  1  0  0  0  0
  9  6  1  0  0  0  0
 10 13  1  0  0  0  0
 11 14  1  0  0  0  0
 12  9  1  0  0  0  0
 14 12  1  0  0  0  0
 14 15  1  0  0  0  0
 15 16  1  0  0  0  0
 15 17  1  0  0  0  0
 18  2  1  0  0  0  0
 18 23  2  0  0  0  0
 19  1  1  0  0  0  0
 19 18  1  0  0  0  0
 20 19  2  0  0  0  0
 21  3  1  0  0  0  0
 21 20  1  0  0  0  0
 22 21  2  0  0  0  0
 22 23  1  0  0  0  0
M  END
>  <CHROM.1>
177.97945097,-171.42134201,-90.35021144,170.79966722,40.86404221,-65.77630708
-164.39876753,-43.53447185,150.92052486,-147.88198134,-68.59188335,-10.83225245
0.55162219,1.73138789,-2.73238637,0.32126804,-1.36250260

>  <Name>
1uui_lig

>  <RI>
0

>  <Rbt.Current_Directory>
/home/itssahil/PROJECTS/Mol_Feturizer/New_Systems/rnas/1uui

>  <Rbt.Executable>
rbdock ($Id: //depot/dev/client3/rdock/2013.1/src/exe/rbdock.cxx#4 $)

>  <Rbt.Library>
libRbt.so (2013.1, Build901 2013/11/27)

>  <Rbt.Parameter_File>
/export/apps/rDock/src/rDock_2013.1_src/data/scripts/dock_solv.prm

>  <Rbt.Receptor>
prm/pocket_docking_2.prm

>  <SCORE>
-13.3206

>  <SCORE.INTER>
-9.04155

>  <SCORE.INTER.CONST>
1

>  <SCORE.INTER.POLAR>
-1.06916

>  <SCORE.INTER.ROT>
10

>  <SCORE.INTER.SOLV>
5.4162

>  <SCORE.INTER.VDW>
-14.5359

>  <SCORE.INTER.norm>
-0.393111

>  <SCORE.INTRA>
-4.46107

>  <SCORE.INTRA.DIHEDRAL>
-10.4466

>  <SCORE.INTRA.DIHEDRAL.0>
23.4151

>  <SCORE.INTRA.POLAR>
0

>  <SCORE.INTRA.POLAR.0>
0

>  <SCORE.INTRA.REPUL>
0

>  <SCORE.INTRA.REPUL.0>
0

>  <SCORE.INTRA.SOLV>
-0.0914486

>  <SCORE.INTRA.SOLV.lig_0>
-17.3568

>  <SCORE.INTRA.VDW>
0.80796

>  <SCORE.INTRA.VDW.0>
1.0768

>  <SCORE.INTRA.norm>
-0.19396

>  <SCORE.RESTR>
0.181976

>  <SCORE.RESTR.CAVITY>
0.181976

>  <SCORE.RESTR.norm>
0.007912

>  <SCORE.SYSTEM>
0

>  <SCORE.SYSTEM.CONST>
0

>  <SCORE.SYSTEM.DIHEDRAL>
0

>  <SCORE.SYSTEM.SOLV>
0

>  <SCORE.SYSTEM.norm>
0

>  <SCORE.heavy>
23

>  <SCORE.norm>
-0.579158

>  <RMSD>
1.189

$$$$
1uui_lig
 OpenBabel11021811413D
libRbt.so/2013.1/901 2013/11/27
 23 24  0  0  0  0  0  0  0  0999 V2000
  -11.5303    0.0237    1.9832 C   0  0  0  0  0  0  0  0  0  0  0  0
   -8.8385   -1.0739    1.9591 O   0  0  0  0  0  0  0  0  0  0  0  0
  -10.4600    2.1046   -2.4874 O   0  0  0  0  0  0  0  0  0  0  0  0
   -7.4288   -0.9327    2.1754 C   0  0  0  0  0  0  0  0  0  0  0  0
  -11.6077    1.5130   -3.1015 C   0  0  0  0  0  0  0  0  0  0  0  0
  -12.8748    0.6117    1.6734 N   0  0  0  0  0  0  0  0  0  0  0  0
   -6.6870   -1.9684    1.3291 C   0  0  0  0  0  0  0  0  0  0  0  0
  -13.0624    1.9196    2.3582 C   0  0  0  0  0  0  0  0  0  0  0  0
  -13.9653   -0.3172    2.0715 C   0  0  0  0  0  0  0  0  0  0  0  0
   -5.1767   -1.7233    1.4064 C   0  0  0  0  0  0  0  0  0  0  0  0
  -12.9852    1.7839    3.8884 C   0  0  0  0  0  0  0  0  0  0  0  0
  -13.9218   -0.6311    3.5768 C   0  0  0  0  0  0  0  0  0  0  0  0
   -4.6886   -2.0710    2.7596 N   0  0  0  0  0  0  0  0  0  0  0  0
  -13.0942    0.3592    4.3335 N   0  0  0  0  0  0  0  0  0  0  0  0
  -12.6203    0.0099    5.6117 C   0  0  0  0  0  0  0  0  0  0  0  0
  -12.1833    0.9670    6.4789 N   0  0  0  0  0  0  0  0  0  0  0  0
  -12.4612   -1.2985    5.9615 N   0  0  0  0  0  0  0  0  0  0  0  0
   -9.2462   -0.2729    0.8463 C   0  0  0  0  0  0  0  0  0  0  0  0
  -10.5536    0.2847    0.8131 C   0  0  0  0  0  0  0  0  0  0  0  0
  -10.9561    1.0770   -0.2978 C   0  0  0  0  0  0  0  0  0  0  0  0
  -10.0528    1.3093   -1.3704 C   0  0  0  0  0  0  0  0  0  0  0  0
   -8.7477    0.7521   -1.3338 C   0  0  0  0  0  0  0  0  0  0  0  0
   -8.3451   -0.0396   -0.2261 C   0  0  0  0  0  0  0  0  0  0  0  0
  2  4  1  0  0  0  0
  3  5  1  0  0  0  0
  4  7  1  0  0  0  0
  6  1  1  0  0  0  0
  7 10  1  0  0  0  0
  8  6  1  0  0  0  0
  8 11  1  0  0  0  0
  9  6  1  0  0  0  0
 10 13  1  0  0  0  0
 11 14  1  0  0  0  0
 12  9  1  0  0  0  0
 14 12  1  0  0  0  0
 14 15  1  0  0  0  0
 15 16  1  0  0  0  0
 15 17  1  0  0  0  0
 18  2  1  0  0  0  0
 18 23  2  0  0  0  0
 19  1  1  0  0  0  0
 19 18  1  0  0  0  0
 20 19  2  0  0  0  0
 21  3  1  0  0  0  0
 21 20  1  0  0  0  0
 22 21  2  0  0  0  0
 22 23  1  0  0  0  0
M  END
>  <CHROM.1>
-88.38895105,172.90056287,-100.18688504,70.14241081,-123.15858201,5.99732261
-51.01159327,-69.81114598,-149.08768835,-175.26850559,-59.02574037,-10.48048266
0.07968739,1.82441001,2.60699935,-0.34293855,1.86388766

>  <Name>
1uui_lig

>  <RI>
0

>  <Rbt.Current_Directory>
/home/itssahil/PROJECTS/Mol_Feturizer/New_Systems/rnas/1uui

>  <Rbt.Executable>
rbdock ($Id: //depot/dev/client3/rdock/2013.1/src/exe/rbdock.cxx#4 $)

>  <Rbt.Library>
libRbt.so (2013.1, Build901 2013/11/27)

>  <Rbt.Parameter_File>
/export/apps/rDock/src/rDock_2013.1_src/data/scripts/dock_solv.prm

>  <Rbt.Receptor>
prm/pocket_docking_2.prm

>  <SCORE>
-19.8566

>  <SCORE.INTER>
-22.8704

>  <SCORE.INTER.CONST>
1

>  <SCORE.INTER.POLAR>
-2.75228

>  <SCORE.INTER.ROT>
10

>  <SCORE.INTER.SOLV>
8.61197

>  <SCORE.INTER.VDW>
-19.21

>  <SCORE.INTER.norm>
-0.994365

>  <SCORE.INTRA>
3.01232

>  <SCORE.INTRA.DIHEDRAL>
-4.11788

>  <SCORE.INTRA.DIHEDRAL.0>
23.4151

>  <SCORE.INTRA.POLAR>
0

>  <SCORE.INTRA.POLAR.0>
0

>  <SCORE.INTRA.REPUL>
0

>  <SCORE.INTRA.REPUL.0>
0

>  <SCORE.INTRA.SOLV>
0.0142582

>  <SCORE.INTRA.SOLV.lig_0>
-17.3568

>  <SCORE.INTRA.VDW>
5.06413

>  <SCORE.INTRA.VDW.0>
1.0768

>  <SCORE.INTRA.norm>
0.13097

>  <SCORE.RESTR>
0.00146038

>  <SCORE.RESTR.CAVITY>
0.00146038

>  <SCORE.RESTR.norm>
6.34949e-05

>  <SCORE.SYSTEM>
0

>  <SCORE.SYSTEM.CONST>
0

>  <SCORE.SYSTEM.DIHEDRAL>
0

>  <SCORE.SYSTEM.SOLV>
0

>  <SCORE.SYSTEM.norm>
0

>  <SCORE.heavy>
23

>  <SCORE.norm>
-0.863332

>  <RMSD>
1.201

$$$$
1uui_lig
 OpenBabel11021811413D
libRbt.so/2013.1/901 2013/11/27
 23 24  0  0  0  0  0  0  0  0999 V2000
  -11.6602   -0.1571    2.0787 C   0  0  0  0  0  0  0  0  0  0  0  0
   -8.8967   -1.0562    2.0001 O   0  0  0  0  0  0  0  0  0  0  0  0
  -10.6819    2.4350   -2.1386 O   0  0  0  0  0  0  0  0  0  0  0  0
   -7.4884   -0.8905    2.2084 C   0  0  0  0  0  0  0  0  0  0  0  0
  -11.4404    1.6898   -3.0944 C   0  0  0  0  0  0  0  0  0  0  0  0
  -13.0798   -0.0036    1.6200 N   0  0  0  0  0  0  0  0  0  0  0  0
   -6.7346   -1.9306    1.3783 C   0  0  0  0  0  0  0  0  0  0  0  0
  -13.6423    1.3098    2.0363 C   0  0  0  0  0  0  0  0  0  0  0  0
  -13.9318   -1.0992    2.1532 C   0  0  0  0  0  0  0  0  0  0  0  0
   -5.3058   -2.0880    1.9082 C   0  0  0  0  0  0  0  0  0  0  0  0
  -13.6560    1.4707    3.5659 C   0  0  0  0  0  0  0  0  0  0  0  0
  -13.9315   -1.1206    3.6913 C   0  0  0  0  0  0  0  0  0  0  0  0
   -4.5249   -2.9349    0.9790 N   0  0  0  0  0  0  0  0  0  0  0  0
  -13.4407    0.1683    4.2710 N   0  0  0  0  0  0  0  0  0  0  0  0
  -12.9981    0.1854    5.6068 C   0  0  0  0  0  0  0  0  0  0  0  0
  -13.4669    1.1173    6.4847 N   0  0  0  0  0  0  0  0  0  0  0  0
  -11.9941   -0.6408    6.0180 N   0  0  0  0  0  0  0  0  0  0  0  0
   -9.3458   -0.1771    0.9649 C   0  0  0  0  0  0  0  0  0  0  0  0
  -10.6891    0.2885    0.9609 C   0  0  0  0  0  0  0  0  0  0  0  0
  -11.1324    1.1590   -0.0733 C   0  0  0  0  0  0  0  0  0  0  0  0
  -10.2338    1.5611   -1.0986 C   0  0  0  0  0  0  0  0  0  0  0  0
   -8.8928    1.0955   -1.0911 C   0  0  0  0  0  0  0  0  0  0  0  0
   -8.4495    0.2258   -0.0602 C   0  0  0  0  0  0  0  0  0  0  0  0
  2  4  1  0  0  0  0
  3  5  1  0  0  0  0
  4  7  1  0  0  0  0
  6  1  1  0  0  0  0
  7 10  1  0  0  0  0
  8  6  1  0  0  0  0
  8 11  1  0  0  0  0
  9  6  1  0  0  0  0
 10 13  1  0  0  0  0
 11 14  1  0  0  0  0
 12  9  1  0  0  0  0
 14 12  1  0  0  0  0
 14 15  1  0  0  0  0
 15 16  1  0  0  0  0
 15 17  1  0  0  0  0
 18  2  1  0  0  0  0
 18 23  2  0  0  0  0
 19  1  1  0  0  0  0
 19 18  1  0  0  0  0
 20 19  2  0  0  0  0
 21  3  1  0  0  0  0
 21 20  1  0  0  0  0
 22 21  2  0  0  0  0
 22 23  1  0  0  0  0
M  END
>  <CHROM.1>
-94.38786676,-161.66508171,-93.97238438,-171.38228069,-47.15936956,38.74008903
-94.45733150,-175.79653232,-152.18834115,-158.44059290,-78.18362852,-10.65801814
-0.00474721,1.79886978,2.69914105,-0.38127209,1.93365541

>  <Name>
1uui_lig

>  <RI>
0

>  <Rbt.Current_Directory>
/home/itssahil/PROJECTS/Mol_Feturizer/New_Systems/rnas/1uui

>  <Rbt.Executable>
rbdock ($Id: //depot/dev/client3/rdock/2013.1/src/exe/rbdock.cxx#4 $)

>  <Rbt.Library>
libRbt.so (2013.1, Build901 2013/11/27)

>  <Rbt.Parameter_File>
/export/apps/rDock/src/rDock_2013.1_src/data/scripts/dock_solv.prm

>  <Rbt.Receptor>
prm/pocket_docking_2.prm

>  <SCORE>
-18.8564

>  <SCORE.INTER>
-18.5542

>  <SCORE.INTER.CONST>
1

>  <SCORE.INTER.POLAR>
-2.34696

>  <SCORE.INTER.ROT>
10

>  <SCORE.INTER.SOLV>
7.69491

>  <SCORE.INTER.VDW>
-17.3779

>  <SCORE.INTER.norm>
-0.806705

>  <SCORE.INTRA>
-1.14317

>  <SCORE.INTRA.DIHEDRAL>
-4.99802

>  <SCORE.INTRA.DIHEDRAL.0>
23.4151

>  <SCORE.INTRA.POLAR>
0

>  <SCORE.INTRA.POLAR.0>
0

>  <SCORE.INTRA.REPUL>
0

>  <SCORE.INTRA.REPUL.0>
0

>  <SCORE.INTRA.SOLV>
-0.0893911

>  <SCORE.INTRA.SOLV.lig_0>
-17.3568

>  <SCORE.INTRA.VDW>
1.40054

>  <SCORE.INTRA.VDW.0>
1.0768

>  <SCORE.INTRA.norm>
-0.0497031

>  <SCORE.RESTR>
0.84098

>  <SCORE.RESTR.CAVITY>
0.84098

>  <SCORE.RESTR.norm>
0.0365643

>  <SCORE.SYSTEM>
0

>  <SCORE.SYSTEM.CONST>
0

>  <SCORE.SYSTEM.DIHEDRAL>
0

>  <SCORE.SYSTEM.SOLV>
0

>  <SCORE.SYSTEM.norm>
0

>  <SCORE.heavy>
23

>  <SCORE.norm>
-0.819844

>  <RMSD>
1.242

$$$$
1uui_lig
 OpenBabel11021811413D
libRbt.so/2013.1/901 2013/11/27
 23 24  0  0  0  0  0  0  0  0999 V2000
  -11.9679   -0.2958    2.7305 C   0  0  0  0  0  0  0  0  0  0  0  0
   -9.3032   -1.0757    1.8688 O   0  0  0  0  0  0  0  0  0  0  0  0
  -12.0221    2.9156   -1.1613 O   0  0  0  0  0  0  0  0  0  0  0  0
   -7.9441   -0.6809    2.0949 C   0  0  0  0  0  0  0  0  0  0  0  0
  -12.5139    2.3386   -2.3734 C   0  0  0  0  0  0  0  0  0  0  0  0
  -13.4547   -0.1133    2.6557 N   0  0  0  0  0  0  0  0  0  0  0  0
   -7.0326   -1.8938    1.9017 C   0  0  0  0  0  0  0  0  0  0  0  0
  -13.8446    1.2823    2.9951 C   0  0  0  0  0  0  0  0  0  0  0  0
  -14.1524   -1.0585    3.5668 C   0  0  0  0  0  0  0  0  0  0  0  0
   -6.0219   -1.6166    0.7842 C   0  0  0  0  0  0  0  0  0  0  0  0
  -13.4275    1.6642    4.4255 C   0  0  0  0  0  0  0  0  0  0  0  0
  -13.7242   -0.8562    5.0303 C   0  0  0  0  0  0  0  0  0  0  0  0
   -6.2168   -2.5926   -0.3112 N   0  0  0  0  0  0  0  0  0  0  0  0
  -13.0581    0.4664    5.2431 N   0  0  0  0  0  0  0  0  0  0  0  0
  -12.2606    0.6468    6.3885 C   0  0  0  0  0  0  0  0  0  0  0  0
  -11.4661   -0.3603    6.8505 N   0  0  0  0  0  0  0  0  0  0  0  0
  -12.3650    1.7815    7.1376 N   0  0  0  0  0  0  0  0  0  0  0  0
   -9.9858   -0.0717    1.1123 C   0  0  0  0  0  0  0  0  0  0  0  0
  -11.2911    0.3418    1.4950 C   0  0  0  0  0  0  0  0  0  0  0  0
  -11.9678    1.3374    0.7369 C   0  0  0  0  0  0  0  0  0  0  0  0
  -11.3394    1.9160   -0.3992 C   0  0  0  0  0  0  0  0  0  0  0  0
  -10.0354    1.5019   -0.7780 C   0  0  0  0  0  0  0  0  0  0  0  0
   -9.3595    0.5076   -0.0229 C   0  0  0  0  0  0  0  0  0  0  0  0
  2  4  1  0  0  0  0
  3  5  1  0  0  0  0
  4  7  1  0  0  0  0
  6  1  1  0  0  0  0
  7 10  1  0  0  0  0
  8  6  1  0  0  0  0
  8 11  1  0  0  0  0
  9  6  1  0  0  0  0
 10 13  1  0  0  0  0
 11 14  1  0  0  0  0
 12  9  1  0  0  0  0
 14 12  1  0  0  0  0
 14 15  1  0  0  0  0
 15 16  1  0  0  0  0
 15 17  1  0  0  0  0
 18  2  1  0  0  0  0
 18 23  2  0  0  0  0
 19  1  1  0  0  0  0
 19 18  1  0  0  0  0
 20 19  2  0  0  0  0
 21  3  1  0  0  0  0
 21 20  1  0  0  0  0
 22 21  2  0  0  0  0
 22 23  1  0  0  0  0
M  END
>  <CHROM.1>
-138.23221861,120.34156327,-75.82247034,-118.58612703,-62.78602171,-153.47846164
-174.09408482,-117.53524455,-135.14659819,-159.10059246,-103.78946179,-11.05395130
0.23675597,2.29162788,-2.41841612,0.49133711,-1.27398748

>  <Name>
1uui_lig

>  <RI>
0

>  <Rbt.Current_Directory>
/home/itssahil/PROJECTS/Mol_Feturizer/New_Systems/rnas/1uui

>  <Rbt.Executable>
rbdock ($Id: //depot/dev/client3/rdock/2013.1/src/exe/rbdock.cxx#4 $)

>  <Rbt.Library>
libRbt.so (2013.1, Build901 2013/11/27)

>  <Rbt.Parameter_File>
/export/apps/rDock/src/rDock_2013.1_src/data/scripts/dock_solv.prm

>  <Rbt.Receptor>
prm/pocket_docking_2.prm

>  <SCORE>
-19.4441

>  <SCORE.INTER>
-23.4395

>  <SCORE.INTER.CONST>
1

>  <SCORE.INTER.POLAR>
-3.2792

>  <SCORE.INTER.ROT>
10

>  <SCORE.INTER.SOLV>
8.65498

>  <SCORE.INTER.VDW>
-17.8473

>  <SCORE.INTER.norm>
-1.01911

>  <SCORE.INTRA>
2.65555

>  <SCORE.INTRA.DIHEDRAL>
5.31759

>  <SCORE.INTRA.DIHEDRAL.0>
23.4151

>  <SCORE.INTRA.POLAR>
0

>  <SCORE.INTRA.POLAR.0>
0

>  <SCORE.INTRA.REPUL>
0

>  <SCORE.INTRA.REPUL.0>
0

>  <SCORE.INTRA.SOLV>
0.0660076

>  <SCORE.INTRA.SOLV.lig_0>
-17.3568

>  <SCORE.INTRA.VDW>
-0.0362517

>  <SCORE.INTRA.VDW.0>
1.0768

>  <SCORE.INTRA.norm>
0.115459

>  <SCORE.RESTR>
1.33981

>  <SCORE.RESTR.CAVITY>
1.33981

>  <SCORE.RESTR.norm>
0.0582526

>  <SCORE.SYSTEM>
0

>  <SCORE.SYSTEM.CONST>
0

>  <SCORE.SYSTEM.DIHEDRAL>
0

>  <SCORE.SYSTEM.SOLV>
0

>  <SCORE.SYSTEM.norm>
0

>  <SCORE.heavy>
23

>  <SCORE.norm>
-0.845397

>  <RMSD>
1.245

$$$$
1uui_lig
 OpenBabel11021811413D
libRbt.so/2013.1/901 2013/11/27
 23 24  0  0  0  0  0  0  0  0999 V2000
  -11.6865    0.0073    2.5697 C   0  0  0  0  0  0  0  0  0  0  0  0
   -9.0408   -0.9513    1.8399 O   0  0  0  0  0  0  0  0  0  0  0  0
  -11.9904    1.9661   -2.0706 O   0  0  0  0  0  0  0  0  0  0  0  0
   -7.8571   -0.2302    2.2043 C   0  0  0  0  0  0  0  0  0  0  0  0
  -12.8731    1.0776   -2.7602 C   0  0  0  0  0  0  0  0  0  0  0  0
  -13.1800    0.1343    2.5159 N   0  0  0  0  0  0  0  0  0  0  0  0
   -6.8138   -0.3901    1.0975 C   0  0  0  0  0  0  0  0  0  0  0  0
  -13.6247    1.4749    2.9847 C   0  0  0  0  0  0  0  0  0  0  0  0
  -13.8326   -0.9196    3.3367 C   0  0  0  0  0  0  0  0  0  0  0  0
   -6.3220   -1.8401    1.0469 C   0  0  0  0  0  0  0  0  0  0  0  0
  -13.2144    1.7392    4.4434 C   0  0  0  0  0  0  0  0  0  0  0  0
  -13.4038   -0.8366    4.8117 C   0  0  0  0  0  0  0  0  0  0  0  0
   -7.3909   -2.7054    0.5000 N   0  0  0  0  0  0  0  0  0  0  0  0
  -12.7911    0.4870    5.1450 N   0  0  0  0  0  0  0  0  0  0  0  0
  -11.9944    0.5930    6.3002 C   0  0  0  0  0  0  0  0  0  0  0  0
  -11.4030   -0.5091    6.8428 N   0  0  0  0  0  0  0  0  0  0  0  0
  -11.9055    1.7727    6.9785 N   0  0  0  0  0  0  0  0  0  0  0  0
   -9.7812   -0.2158    0.8616 C   0  0  0  0  0  0  0  0  0  0  0  0
  -11.0797    0.2726    1.1724 C   0  0  0  0  0  0  0  0  0  0  0  0
  -11.8141    0.9998    0.1947 C   0  0  0  0  0  0  0  0  0  0  0  0
  -11.2498    1.2364   -1.0882 C   0  0  0  0  0  0  0  0  0  0  0  0
   -9.9524    0.7485   -1.3950 C   0  0  0  0  0  0  0  0  0  0  0  0
   -9.2190    0.0218   -0.4205 C   0  0  0  0  0  0  0  0  0  0  0  0
  2  4  1  0  0  0  0
  3  5  1  0  0  0  0
  4  7  1  0  0  0  0
  6  1  1  0  0  0  0
  7 10  1  0  0  0  0
  8  6  1  0  0  0  0
  8 11  1  0  0  0  0
  9  6  1  0  0  0  0
 10 13  1  0  0  0  0
 11 14  1  0  0  0  0
 12  9  1  0  0  0  0
 14 12  1  0  0  0  0
 14 15  1  0  0  0  0
 15 16  1  0  0  0  0
 15 17  1  0  0  0  0
 18  2  1  0  0  0  0
 18 23  2  0  0  0  0
 19  1  1  0  0  0  0
 19 18  1  0  0  0  0
 20 19  2  0  0  0  0
 21  3  1  0  0  0  0
 21 20  1  0  0  0  0
 22 21  2  0  0  0  0
 22 23  1  0  0  0  0
M  END
>  <CHROM.1>
-76.98074924,-68.10165399,-98.06108056,71.69773770,-48.64169948,-169.04616126
-163.36205908,-65.09660242,-115.84089167,-158.82979031,-84.38516452,-10.96654225
0.14480082,2.09537894,2.12969612,-0.39929412,1.69676397

>  <Name>
1uui_lig

>  <RI>
0

>  <Rbt.Current_Directory>
/home/itssahil/PROJECTS/Mol_Feturizer/New_Systems/rnas/1uui

>  <Rbt.Executable>
rbdock ($Id: //depot/dev/client3/rdock/2013.1/src/exe/rbdock.cxx#4 $)

>  <Rbt.Library>
libRbt.so (2013.1, Build901 2013/11/27)

>  <Rbt.Parameter_File>
/export/apps/rDock/src/rDock_2013.1_src/data/scripts/dock_solv.prm

>  <Rbt.Receptor>
prm/pocket_docking_3.prm

>  <SCORE>
-28.9695

>  <SCORE.INTER>
-25.1524

>  <SCORE.INTER.CONST>
1

>  <SCORE.INTER.POLAR>
-2.89793

>  <SCORE.INTER.ROT>
10

>  <SCORE.INTER.SOLV>
9.42318

>  <SCORE.INTER.VDW>
-20.5162

>  <SCORE.INTER.norm>
-1.09358

>  <SCORE.INTRA>
-3.81714

>  <SCORE.INTRA.DIHEDRAL>
-5.35545

>  <SCORE.INTRA.DIHEDRAL.0>
23.4151

>  <SCORE.INTRA.POLAR>
-0.631226

>  <SCORE.INTRA.POLAR.0>
0

>  <SCORE.INTRA.REPUL>
0

>  <SCORE.INTRA.REPUL.0>
0

>  <SCORE.INTRA.SOLV>
0.619771

>  <SCORE.INTRA.SOLV.lig_0>
-17.3568

>  <SCORE.INTRA.VDW>
0.696862

>  <SCORE.INTRA.VDW.0>
1.0768

>  <SCORE.INTRA.norm>
-0.165963

>  <SCORE.RESTR>
0

>  <SCORE.RESTR.CAVITY>
0

>  <SCORE.RESTR.norm>
0

>  <SCORE.SYSTEM>
0

>  <SCORE.SYSTEM.CONST>
0

>  <SCORE.SYSTEM.DIHEDRAL>
0

>  <SCORE.SYSTEM.SOLV>
0

>  <SCORE.SYSTEM.norm>
0

>  <SCORE.heavy>
23

>  <SCORE.norm>
-1.25955

>  <RMSD>
1.336

$$$$
1uui_lig
 OpenBabel11021811413D
libRbt.so/2013.1/901 2013/11/27
 23 24  0  0  0  0  0  0  0  0999 V2000
  -12.7764   -0.3367    1.6006 C   0  0  0  0  0  0  0  0  0  0  0  0
   -9.9159    0.1409    1.8030 O   0  0  0  0  0  0  0  0  0  0  0  0
  -12.5142    1.5486   -3.0726 O   0  0  0  0  0  0  0  0  0  0  0  0
   -8.8428   -0.7710    1.5369 C   0  0  0  0  0  0  0  0  0  0  0  0
  -12.8146    2.9464   -3.0697 C   0  0  0  0  0  0  0  0  0  0  0  0
  -14.2225    0.0436    1.4837 N   0  0  0  0  0  0  0  0  0  0  0  0
   -7.5739   -0.2637    2.2238 C   0  0  0  0  0  0  0  0  0  0  0  0
  -14.4730    1.3947    2.0550 C   0  0  0  0  0  0  0  0  0  0  0  0
  -15.0904   -0.9520    2.1664 C   0  0  0  0  0  0  0  0  0  0  0  0
   -6.4704   -1.3225    2.1332 C   0  0  0  0  0  0  0  0  0  0  0  0
  -14.1219    1.4606    3.5511 C   0  0  0  0  0  0  0  0  0  0  0  0
  -14.7516   -1.0687    3.6623 C   0  0  0  0  0  0  0  0  0  0  0  0
   -5.2694   -0.8472    2.8560 N   0  0  0  0  0  0  0  0  0  0  0  0
  -13.9550    0.0996    4.1507 N   0  0  0  0  0  0  0  0  0  0  0  0
  -13.2293   -0.0289    5.3496 C   0  0  0  0  0  0  0  0  0  0  0  0
  -13.5697    0.6978    6.4519 N   0  0  0  0  0  0  0  0  0  0  0  0
  -12.0912   -0.7787    5.3974 N   0  0  0  0  0  0  0  0  0  0  0  0
  -10.5707    0.4968    0.5820 C   0  0  0  0  0  0  0  0  0  0  0  0
  -11.9684    0.2814    0.4361 C   0  0  0  0  0  0  0  0  0  0  0  0
  -12.6144    0.6328   -0.7817 C   0  0  0  0  0  0  0  0  0  0  0  0
  -11.8633    1.1975   -1.8482 C   0  0  0  0  0  0  0  0  0  0  0  0
  -10.4680    1.4127   -1.6989 C   0  0  0  0  0  0  0  0  0  0  0  0
   -9.8220    1.0613   -0.4844 C   0  0  0  0  0  0  0  0  0  0  0  0
  2  4  1  0  0  0  0
  3  5  1  0  0  0  0
  4  7  1  0  0  0  0
  6  1  1  0  0  0  0
  7 10  1  0  0  0  0
  8  6  1  0  0  0  0
  8 11  1  0  0  0  0
  9  6  1  0  0  0  0
 10 13  1  0  0  0  0
 11 14  1  0  0  0  0
 12  9  1  0  0  0  0
 14 12  1  0  0  0  0
 14 15  1  0  0  0  0
 15 16  1  0  0  0  0
 15 17  1  0  0  0  0
 18  2  1  0  0  0  0
 18 23  2  0  0  0  0
 19  1  1  0  0  0  0
 19 18  1  0  0  0  0
 20 19  2  0  0  0  0
 21  3  1  0  0  0  0
 21 20  1  0  0  0  0
 22 21  2  0  0  0  0
 22 23  1  0  0  0  0
M  END
>  <CHROM.1>
129.81847159,171.48456041,-82.75077910,-177.33869991,-62.83327949,54.70952375
-121.19213358,36.90959648,123.52427324,156.38129307,97.68697056,-11.65757466
0.29408933,1.65729159,2.55680835,-0.15356746,1.83701419

>  <Name>
1uui_lig

>  <RI>
0

>  <Rbt.Current_Directory>
/home/itssahil/PROJECTS/Mol_Feturizer/New_Systems/rnas/1uui

>  <Rbt.Executable>
rbdock ($Id: //depot/dev/client3/rdock/2013.1/src/exe/rbdock.cxx#4 $)

>  <Rbt.Library>
libRbt.so (2013.1, Build901 2013/11/27)

>  <Rbt.Parameter_File>
/export/apps/rDock/src/rDock_2013.1_src/data/scripts/dock_solv.prm

>  <Rbt.Receptor>
prm/pocket_docking_2.prm

>  <SCORE>
-13.9127

>  <SCORE.INTER>
-11.0445

>  <SCORE.INTER.CONST>
1

>  <SCORE.INTER.POLAR>
-1.34309

>  <SCORE.INTER.ROT>
10

>  <SCORE.INTER.SOLV>
7.20225

>  <SCORE.INTER.VDW>
-15.5534

>  <SCORE.INTER.norm>
-0.480195

>  <SCORE.INTRA>
-2.86819

>  <SCORE.INTRA.DIHEDRAL>
-2.77393

>  <SCORE.INTRA.DIHEDRAL.0>
23.4151

>  <SCORE.INTRA.POLAR>
0

>  <SCORE.INTRA.POLAR.0>
0

>  <SCORE.INTRA.REPUL>
0

>  <SCORE.INTRA.REPUL.0>
0

>  <SCORE.INTRA.SOLV>
-0.0708071

>  <SCORE.INTRA.SOLV.lig_0>
-17.3568

>  <SCORE.INTRA.VDW>
-1.44582

>  <SCORE.INTRA.VDW.0>
1.0768

>  <SCORE.INTRA.norm>
-0.124704

>  <SCORE.RESTR>
0

>  <SCORE.RESTR.CAVITY>
0

>  <SCORE.RESTR.norm>
0

>  <SCORE.SYSTEM>
0

>  <SCORE.SYSTEM.CONST>
0

>  <SCORE.SYSTEM.DIHEDRAL>
0

>  <SCORE.SYSTEM.SOLV>
0

>  <SCORE.SYSTEM.norm>
0

>  <SCORE.heavy>
23

>  <SCORE.norm>
-0.604899

>  <RMSD>
1.348

$$$$
1uui_lig
 OpenBabel11021811413D
libRbt.so/2013.1/901 2013/11/27
 23 24  0  0  0  0  0  0  0  0999 V2000
  -11.1449    0.2759    1.6355 C   0  0  0  0  0  0  0  0  0  0  0  0
   -8.3786   -0.2513    0.9136 O   0  0  0  0  0  0  0  0  0  0  0  0
  -11.6021    2.6241   -2.8073 O   0  0  0  0  0  0  0  0  0  0  0  0
   -7.2634    0.5506    1.3226 C   0  0  0  0  0  0  0  0  0  0  0  0
  -12.0549    1.7340   -3.8304 C   0  0  0  0  0  0  0  0  0  0  0  0
  -12.5526   -0.2004    1.4332 N   0  0  0  0  0  0  0  0  0  0  0  0
   -6.2664   -0.3286    2.0791 C   0  0  0  0  0  0  0  0  0  0  0  0
  -13.5200    0.9280    1.5086 C   0  0  0  0  0  0  0  0  0  0  0  0
  -12.9144   -1.2318    2.4411 C   0  0  0  0  0  0  0  0  0  0  0  0
   -5.8682   -1.5303    1.2164 C   0  0  0  0  0  0  0  0  0  0  0  0
  -13.4855    1.6244    2.8797 C   0  0  0  0  0  0  0  0  0  0  0  0
  -12.8008   -0.6878    3.8754 C   0  0  0  0  0  0  0  0  0  0  0  0
   -6.9286   -2.5606    1.2851 N   0  0  0  0  0  0  0  0  0  0  0  0
  -12.7681    0.8076    3.9082 N   0  0  0  0  0  0  0  0  0  0  0  0
  -12.2706    1.4493    5.0576 C   0  0  0  0  0  0  0  0  0  0  0  0
  -11.5010    2.5699    4.9525 N   0  0  0  0  0  0  0  0  0  0  0  0
  -12.4331    0.8918    6.2914 N   0  0  0  0  0  0  0  0  0  0  0  0
   -9.1882    0.4733   -0.0168 C   0  0  0  0  0  0  0  0  0  0  0  0
  -10.5472    0.7544    0.2920 C   0  0  0  0  0  0  0  0  0  0  0  0
  -11.3498    1.4715   -0.6383 C   0  0  0  0  0  0  0  0  0  0  0  0
  -10.7931    1.9048   -1.8723 C   0  0  0  0  0  0  0  0  0  0  0  0
   -9.4354    1.6237   -2.1771 C   0  0  0  0  0  0  0  0  0  0  0  0
   -8.6338    0.9072   -1.2499 C   0  0  0  0  0  0  0  0  0  0  0  0
  2  4  1  0  0  0  0
  3  5  1  0  0  0  0
  4  7  1  0  0  0  0
  6  1  1  0  0  0  0
  7 10  1  0  0  0  0
  8  6  1  0  0  0  0
  8 11  1  0  0  0  0
  9  6  1  0  0  0  0
 10 13  1  0  0  0  0
 11 14  1  0  0  0  0
 12  9  1  0  0  0  0
 14 12  1  0  0  0  0
 14 15  1  0  0  0  0
 15 16  1  0  0  0  0
 15 17  1  0  0  0  0
 18  2  1  0  0  0  0
 18 23  2  0  0  0  0
 19  1  1  0  0  0  0
 19 18  1  0  0  0  0
 20 19  2  0  0  0  0
 21  3  1  0  0  0  0
 21 20  1  0  0  0  0
 22 21  2  0  0  0  0
 22 23  1  0  0  0  0
M  END
>  <CHROM.1>
-168.43957850,55.02512860,-85.80636947,-79.72376689,-52.33237972,-50.66290971
-2.75018926,-33.90510465,-119.44057561,-141.10987943,-99.91845550,-10.59274494
0.57284800,1.29645115,2.23521300,-0.36272580,1.78311398

>  <Name>
1uui_lig

>  <RI>
0

>  <Rbt.Current_Directory>
/home/itssahil/PROJECTS/Mol_Feturizer/New_Systems/rnas/1uui

>  <Rbt.Executable>
rbdock ($Id: //depot/dev/client3/rdock/2013.1/src/exe/rbdock.cxx#4 $)

>  <Rbt.Library>
libRbt.so (2013.1, Build901 2013/11/27)

>  <Rbt.Parameter_File>
/export/apps/rDock/src/rDock_2013.1_src/data/scripts/dock_solv.prm

>  <Rbt.Receptor>
prm/pocket_docking_4.prm

>  <SCORE>
-23.4274

>  <SCORE.INTER>
-17.0905

>  <SCORE.INTER.CONST>
1

>  <SCORE.INTER.POLAR>
-1.969

>  <SCORE.INTER.ROT>
10

>  <SCORE.INTER.SOLV>
6.23634

>  <SCORE.INTER.VDW>
-17.1758

>  <SCORE.INTER.norm>
-0.743065

>  <SCORE.INTRA>
-6.33686

>  <SCORE.INTRA.DIHEDRAL>
-6.99587

>  <SCORE.INTRA.DIHEDRAL.0>
23.4151

>  <SCORE.INTRA.POLAR>
-0.460956

>  <SCORE.INTRA.POLAR.0>
0

>  <SCORE.INTRA.REPUL>
0

>  <SCORE.INTRA.REPUL.0>
0

>  <SCORE.INTRA.SOLV>
0.49315

>  <SCORE.INTRA.SOLV.lig_0>
-17.3568

>  <SCORE.INTRA.VDW>
-1.51825

>  <SCORE.INTRA.VDW.0>
1.0768

>  <SCORE.INTRA.norm>
-0.275516

>  <SCORE.RESTR>
0

>  <SCORE.RESTR.CAVITY>
0

>  <SCORE.RESTR.norm>
0

>  <SCORE.SYSTEM>
0

>  <SCORE.SYSTEM.CONST>
0

>  <SCORE.SYSTEM.DIHEDRAL>
0

>  <SCORE.SYSTEM.SOLV>
0

>  <SCORE.SYSTEM.norm>
0

>  <SCORE.heavy>
23

>  <SCORE.norm>
-1.01858

>  <RMSD>
1.455

$$$$
1uui_lig
 OpenBabel11021811413D
libRbt.so/2013.1/901 2013/11/27
 23 24  0  0  0  0  0  0  0  0999 V2000
  -12.2183    1.6065    2.0904 C   0  0  0  0  0  0  0  0  0  0  0  0
   -9.8026    0.1933    1.3041 O   0  0  0  0  0  0  0  0  0  0  0  0
  -11.6869    4.3531   -2.1091 O   0  0  0  0  0  0  0  0  0  0  0  0
   -8.6801   -0.4625    0.7009 C   0  0  0  0  0  0  0  0  0  0  0  0
  -13.0002    4.0297   -2.5724 C   0  0  0  0  0  0  0  0  0  0  0  0
  -13.6208    1.1875    1.7634 N   0  0  0  0  0  0  0  0  0  0  0  0
   -7.6737   -0.8348    1.7908 C   0  0  0  0  0  0  0  0  0  0  0  0
  -14.5988    1.7925    2.7081 C   0  0  0  0  0  0  0  0  0  0  0  0
  -13.7535   -0.2931    1.7933 C   0  0  0  0  0  0  0  0  0  0  0  0
   -6.4999   -1.6056    1.1785 C   0  0  0  0  0  0  0  0  0  0  0  0
  -14.3390    1.3588    4.1608 C   0  0  0  0  0  0  0  0  0  0  0  0
  -13.3987   -0.8666    3.1758 C   0  0  0  0  0  0  0  0  0  0  0  0
   -7.0071   -2.8161    0.4943 N   0  0  0  0  0  0  0  0  0  0  0  0
  -13.4155    0.1839    4.2410 N   0  0  0  0  0  0  0  0  0  0  0  0
  -12.7396   -0.0662    5.4498 C   0  0  0  0  0  0  0  0  0  0  0  0
  -12.1363    0.9474    6.1337 N   0  0  0  0  0  0  0  0  0  0  0  0
  -12.5572   -1.3424    5.8942 N   0  0  0  0  0  0  0  0  0  0  0  0
  -10.2751    1.2400    0.4512 C   0  0  0  0  0  0  0  0  0  0  0  0
  -11.4528    1.9589    0.7939 C   0  0  0  0  0  0  0  0  0  0  0  0
  -11.9214    2.9960   -0.0597 C   0  0  0  0  0  0  0  0  0  0  0  0
  -11.2131    3.3112   -1.2511 C   0  0  0  0  0  0  0  0  0  0  0  0
  -10.0368    2.5924   -1.5898 C   0  0  0  0  0  0  0  0  0  0  0  0
   -9.5688    1.5564   -0.7393 C   0  0  0  0  0  0  0  0  0  0  0  0
  2  4  1  0  0  0  0
  3  5  1  0  0  0  0
  4  7  1  0  0  0  0
  6  1  1  0  0  0  0
  7 10  1  0  0  0  0
  8  6  1  0  0  0  0
  8 11  1  0  0  0  0
  9  6  1  0  0  0  0
 10 13  1  0  0  0  0
 11 14  1  0  0  0  0
 12  9  1  0  0  0  0
 14 12  1  0  0  0  0
 14 15  1  0  0  0  0
 15 16  1  0  0  0  0
 15 17  1  0  0  0  0
 18  2  1  0  0  0  0
 18 23  2  0  0  0  0
 19  1  1  0  0  0  0
 19 18  1  0  0  0  0
 20 19  2  0  0  0  0
 21  3  1  0  0  0  0
 21 20  1  0  0  0  0
 22 21  2  0  0  0  0
 22 23  1  0  0  0  0
M  END
>  <CHROM.1>
142.92158938,176.92334412,-137.01880065,-57.96847727,-163.64087671,-45.25432218
155.12162426,127.60102371,174.85342739,-120.20049401,-60.44107615,-11.36061590
0.85671855,1.60234236,2.13500637,-0.50422356,2.17114103

>  <Name>
1uui_lig

>  <RI>
0

>  <Rbt.Current_Directory>
/home/itssahil/PROJECTS/Mol_Feturizer/New_Systems/rnas/1uui

>  <Rbt.Executable>
rbdock ($Id: //depot/dev/client3/rdock/2013.1/src/exe/rbdock.cxx#4 $)

>  <Rbt.Library>
libRbt.so (2013.1, Build901 2013/11/27)

>  <Rbt.Parameter_File>
/export/apps/rDock/src/rDock_2013.1_src/data/scripts/dock_solv.prm

>  <Rbt.Receptor>
prm/pocket_docking_2.prm

>  <SCORE>
-14.644

>  <SCORE.INTER>
-14.7191

>  <SCORE.INTER.CONST>
1

>  <SCORE.INTER.POLAR>
-2.20268

>  <SCORE.INTER.ROT>
10

>  <SCORE.INTER.SOLV>
7.41911

>  <SCORE.INTER.VDW>
-15.2102

>  <SCORE.INTER.norm>
-0.639963

>  <SCORE.INTRA>
-0.466632

>  <SCORE.INTRA.DIHEDRAL>
-6.89862

>  <SCORE.INTRA.DIHEDRAL.0>
23.4151

>  <SCORE.INTRA.POLAR>
0

>  <SCORE.INTRA.POLAR.0>
0

>  <SCORE.INTRA.REPUL>
0

>  <SCORE.INTRA.REPUL.0>
0

>  <SCORE.INTRA.SOLV>
0.128812

>  <SCORE.INTRA.SOLV.lig_0>
-17.3568

>  <SCORE.INTRA.VDW>
2.91827

>  <SCORE.INTRA.VDW.0>
1.0768

>  <SCORE.INTRA.norm>
-0.0202884

>  <SCORE.RESTR>
0.541788

>  <SCORE.RESTR.CAVITY>
0.541788

>  <SCORE.RESTR.norm>
0.023556

>  <SCORE.SYSTEM>
0

>  <SCORE.SYSTEM.CONST>
0

>  <SCORE.SYSTEM.DIHEDRAL>
0

>  <SCORE.SYSTEM.SOLV>
0

>  <SCORE.SYSTEM.norm>
0

>  <SCORE.heavy>
23

>  <SCORE.norm>
-0.636695

>  <RMSD>
1.496

$$$$
1uui_lig
 OpenBabel11021811413D
libRbt.so/2013.1/901 2013/11/27
 23 24  0  0  0  0  0  0  0  0999 V2000
  -11.4841    0.7274    2.0017 C   0  0  0  0  0  0  0  0  0  0  0  0
   -8.9818   -0.5007    1.1763 O   0  0  0  0  0  0  0  0  0  0  0  0
  -11.1954    3.5475   -2.1727 O   0  0  0  0  0  0  0  0  0  0  0  0
   -7.6628   -0.1275    1.5946 C   0  0  0  0  0  0  0  0  0  0  0  0
  -12.2800    3.0001   -2.9263 C   0  0  0  0  0  0  0  0  0  0  0  0
  -12.2764   -0.5247    1.7694 N   0  0  0  0  0  0  0  0  0  0  0  0
   -7.0372   -1.2881    2.3698 C   0  0  0  0  0  0  0  0  0  0  0  0
  -13.7128   -0.2176    1.5300 C   0  0  0  0  0  0  0  0  0  0  0  0
  -12.1537   -1.4529    2.9243 C   0  0  0  0  0  0  0  0  0  0  0  0
   -6.5472   -2.3645    1.3959 C   0  0  0  0  0  0  0  0  0  0  0  0
  -14.3573    0.4923    2.7327 C   0  0  0  0  0  0  0  0  0  0  0  0
  -12.6591   -0.8082    4.2263 C   0  0  0  0  0  0  0  0  0  0  0  0
   -5.2040   -2.0002    0.8922 N   0  0  0  0  0  0  0  0  0  0  0  0
  -13.5132    0.3918    3.9644 N   0  0  0  0  0  0  0  0  0  0  0  0
  -13.7181    1.3176    5.0043 C   0  0  0  0  0  0  0  0  0  0  0  0
  -13.9181    2.6386    4.7323 N   0  0  0  0  0  0  0  0  0  0  0  0
  -13.5876    0.9400    6.3082 N   0  0  0  0  0  0  0  0  0  0  0  0
   -9.5371    0.5180    0.3396 C   0  0  0  0  0  0  0  0  0  0  0  0
  -10.7596    1.1470    0.7016 C   0  0  0  0  0  0  0  0  0  0  0  0
  -11.3103    2.1564   -0.1360 C   0  0  0  0  0  0  0  0  0  0  0  0
  -10.6392    2.5337   -1.3308 C   0  0  0  0  0  0  0  0  0  0  0  0
   -9.4180    1.9046   -1.6889 C   0  0  0  0  0  0  0  0  0  0  0  0
   -8.8679    0.8963   -0.8544 C   0  0  0  0  0  0  0  0  0  0  0  0
  2  4  1  0  0  0  0
  3  5  1  0  0  0  0
  4  7  1  0  0  0  0
  6  1  1  0  0  0  0
  7 10  1  0  0  0  0
  8  6  1  0  0  0  0
  8 11  1  0  0  0  0
  9  6  1  0  0  0  0
 10 13  1  0  0  0  0
 11 14  1  0  0  0  0
 12  9  1  0  0  0  0
 14 12  1  0  0  0  0
 14 15  1  0  0  0  0
 15 16  1  0  0  0  0
 15 17  1  0  0  0  0
 18  2  1  0  0  0  0
 18 23  2  0  0  0  0
 19  1  1  0  0  0  0
 19 18  1  0  0  0  0
 20 19  2  0  0  0  0
 21  3  1  0  0  0  0
 21 20  1  0  0  0  0
 22 21  2  0  0  0  0
 22 23  1  0  0  0  0
M  END
>  <CHROM.1>
-174.41211756,77.92030155,-98.96324879,83.38112595,60.81996104,-42.13349480
145.27757460,80.26394178,-121.94607613,-81.14572263,-77.01653512,-10.89400834
0.54275638,1.54850018,2.69425148,-0.44987776,2.07250688

>  <Name>
1uui_lig

>  <RI>
0

>  <Rbt.Current_Directory>
/home/itssahil/PROJECTS/Mol_Feturizer/New_Systems/rnas/1uui

>  <Rbt.Executable>
rbdock ($Id: //depot/dev/client3/rdock/2013.1/src/exe/rbdock.cxx#4 $)

>  <Rbt.Library>
libRbt.so (2013.1, Build901 2013/11/27)

>  <Rbt.Parameter_File>
/export/apps/rDock/src/rDock_2013.1_src/data/scripts/dock_solv.prm

>  <Rbt.Receptor>
prm/pocket_docking_2.prm

>  <SCORE>
-11.8735

>  <SCORE.INTER>
-7.10439

>  <SCORE.INTER.CONST>
1

>  <SCORE.INTER.POLAR>
-1.13979

>  <SCORE.INTER.ROT>
10

>  <SCORE.INTER.SOLV>
5.03974

>  <SCORE.INTER.VDW>
-12.8835

>  <SCORE.INTER.norm>
-0.308886

>  <SCORE.INTRA>
-4.81565

>  <SCORE.INTRA.DIHEDRAL>
-5.17308

>  <SCORE.INTRA.DIHEDRAL.0>
23.4151

>  <SCORE.INTRA.POLAR>
0

>  <SCORE.INTRA.POLAR.0>
0

>  <SCORE.INTRA.REPUL>
0

>  <SCORE.INTRA.REPUL.0>
0

>  <SCORE.INTRA.SOLV>
0.212728

>  <SCORE.INTRA.SOLV.lig_0>
-17.3568

>  <SCORE.INTRA.VDW>
-2.33547

>  <SCORE.INTRA.VDW.0>
1.0768

>  <SCORE.INTRA.norm>
-0.209376

>  <SCORE.RESTR>
0.0465767

>  <SCORE.RESTR.CAVITY>
0.0465767

>  <SCORE.RESTR.norm>
0.00202507

>  <SCORE.SYSTEM>
0

>  <SCORE.SYSTEM.CONST>
0

>  <SCORE.SYSTEM.DIHEDRAL>
0

>  <SCORE.SYSTEM.SOLV>
0

>  <SCORE.SYSTEM.norm>
0

>  <SCORE.heavy>
23

>  <SCORE.norm>
-0.516238

>  <RMSD>
1.504

$$$$
1uui_lig
 OpenBabel11021811413D
libRbt.so/2013.1/901 2013/11/27
 23 24  0  0  0  0  0  0  0  0999 V2000
  -12.3122    0.1154    1.5017 C   0  0  0  0  0  0  0  0  0  0  0  0
   -9.4845   -0.4196    1.0901 O   0  0  0  0  0  0  0  0  0  0  0  0
  -11.8692    3.7835   -1.9349 O   0  0  0  0  0  0  0  0  0  0  0  0
   -8.4482   -1.0448    0.3224 C   0  0  0  0  0  0  0  0  0  0  0  0
  -12.5915    3.2259   -3.0356 C   0  0  0  0  0  0  0  0  0  0  0  0
  -13.7182   -0.0184    0.9971 N   0  0  0  0  0  0  0  0  0  0  0  0
   -7.1085   -0.3918    0.6660 C   0  0  0  0  0  0  0  0  0  0  0  0
  -14.5550    1.1377    1.4188 C   0  0  0  0  0  0  0  0  0  0  0  0
  -14.3378   -1.2809    1.4793 C   0  0  0  0  0  0  0  0  0  0  0  0
   -6.6504   -0.8377    2.0582 C   0  0  0  0  0  0  0  0  0  0  0  0
  -14.6477    1.2524    2.9498 C   0  0  0  0  0  0  0  0  0  0  0  0
  -14.3790   -1.3418    3.0158 C   0  0  0  0  0  0  0  0  0  0  0  0
   -6.1767   -2.2385    1.9973 N   0  0  0  0  0  0  0  0  0  0  0  0
  -14.1860    0.0056    3.6368 N   0  0  0  0  0  0  0  0  0  0  0  0
  -13.7969    0.0797    4.9872 C   0  0  0  0  0  0  0  0  0  0  0  0
  -14.5456    0.7732    5.8914 N   0  0  0  0  0  0  0  0  0  0  0  0
  -12.5971   -0.4243    5.3945 N   0  0  0  0  0  0  0  0  0  0  0  0
  -10.0841    0.6371    0.3350 C   0  0  0  0  0  0  0  0  0  0  0  0
  -11.4642    0.9352    0.5018 C   0  0  0  0  0  0  0  0  0  0  0  0
  -12.0571    1.9841   -0.2547 C   0  0  0  0  0  0  0  0  0  0  0  0
  -11.2709    2.7305   -1.1739 C   0  0  0  0  0  0  0  0  0  0  0  0
   -9.8928    2.4312   -1.3372 C   0  0  0  0  0  0  0  0  0  0  0  0
   -9.3002    1.3840   -0.5836 C   0  0  0  0  0  0  0  0  0  0  0  0
  2  4  1  0  0  0  0
  3  5  1  0  0  0  0
  4  7  1  0  0  0  0
  6  1  1  0  0  0  0
  7 10  1  0  0  0  0
  8  6  1  0  0  0  0
  8 11  1  0  0  0  0
  9  6  1  0  0  0  0
 10 13  1  0  0  0  0
 11 14  1  0  0  0  0
 12  9  1  0  0  0  0
 14 12  1  0  0  0  0
 14 15  1  0  0  0  0
 15 16  1  0  0  0  0
 15 17  1  0  0  0  0
 18  2  1  0  0  0  0
 18 23  2  0  0  0  0
 19  1  1  0  0  0  0
 19 18  1  0  0  0  0
 20 19  2  0  0  0  0
 21  3  1  0  0  0  0
 21 20  1  0  0  0  0
 22 21  2  0  0  0  0
 22 23  1  0  0  0  0
M  END
>  <CHROM.1>
93.77367321,73.29387110,-87.05912548,73.80658960,79.20482835,44.71374412
-59.29466898,29.94220657,147.32663386,-146.68485656,-79.19362173,-11.52945866
0.50210224,1.35854723,2.65299802,-0.29693143,2.12156267

>  <Name>
1uui_lig

>  <RI>
0

>  <Rbt.Current_Directory>
/home/itssahil/PROJECTS/Mol_Feturizer/New_Systems/rnas/1uui

>  <Rbt.Executable>
rbdock ($Id: //depot/dev/client3/rdock/2013.1/src/exe/rbdock.cxx#4 $)

>  <Rbt.Library>
libRbt.so (2013.1, Build901 2013/11/27)

>  <Rbt.Parameter_File>
/export/apps/rDock/src/rDock_2013.1_src/data/scripts/dock_solv.prm

>  <Rbt.Receptor>
prm/pocket_docking_2.prm

>  <SCORE>
-15.8069

>  <SCORE.INTER>
-15.1152

>  <SCORE.INTER.CONST>
1

>  <SCORE.INTER.POLAR>
-2.6723

>  <SCORE.INTER.ROT>
10

>  <SCORE.INTER.SOLV>
5.91456

>  <SCORE.INTER.VDW>
-13.4073

>  <SCORE.INTER.norm>
-0.657184

>  <SCORE.INTRA>
-1.53791

>  <SCORE.INTRA.DIHEDRAL>
-5.03037

>  <SCORE.INTRA.DIHEDRAL.0>
23.4151

>  <SCORE.INTRA.POLAR>
0

>  <SCORE.INTRA.POLAR.0>
0

>  <SCORE.INTRA.REPUL>
0

>  <SCORE.INTRA.REPUL.0>
0

>  <SCORE.INTRA.SOLV>
0.145919

>  <SCORE.INTRA.SOLV.lig_0>
-17.3568

>  <SCORE.INTRA.VDW>
0.904314

>  <SCORE.INTRA.VDW.0>
1.0768

>  <SCORE.INTRA.norm>
-0.0668657

>  <SCORE.RESTR>
0.846218

>  <SCORE.RESTR.CAVITY>
0.846218

>  <SCORE.RESTR.norm>
0.0367921

>  <SCORE.SYSTEM>
0

>  <SCORE.SYSTEM.CONST>
0

>  <SCORE.SYSTEM.DIHEDRAL>
0

>  <SCORE.SYSTEM.SOLV>
0

>  <SCORE.SYSTEM.norm>
0

>  <SCORE.heavy>
23

>  <SCORE.norm>
-0.687258

>  <RMSD>
1.535

$$$$
1uui_lig
 OpenBabel11021811413D
libRbt.so/2013.1/901 2013/11/27
 23 24  0  0  0  0  0  0  0  0999 V2000
  -10.6464    1.1056    2.5676 C   0  0  0  0  0  0  0  0  0  0  0  0
   -8.6127   -0.9525    2.2855 O   0  0  0  0  0  0  0  0  0  0  0  0
  -10.2381    1.8485   -2.4066 O   0  0  0  0  0  0  0  0  0  0  0  0
   -7.2537   -1.3875    2.1514 C   0  0  0  0  0  0  0  0  0  0  0  0
  -11.5121    1.3604   -2.8339 C   0  0  0  0  0  0  0  0  0  0  0  0
  -11.8897    1.9216    2.3726 N   0  0  0  0  0  0  0  0  0  0  0  0
   -6.3213   -0.2544    2.5824 C   0  0  0  0  0  0  0  0  0  0  0  0
  -12.0053    2.9843    3.4080 C   0  0  0  0  0  0  0  0  0  0  0  0
  -13.1012    1.0606    2.4084 C   0  0  0  0  0  0  0  0  0  0  0  0
   -4.8614   -0.7025    2.4607 C   0  0  0  0  0  0  0  0  0  0  0  0
  -12.0840    2.3979    4.8277 C   0  0  0  0  0  0  0  0  0  0  0  0
  -13.2292    0.3168    3.7487 C   0  0  0  0  0  0  0  0  0  0  0  0
   -4.5826   -1.7551    3.4631 N   0  0  0  0  0  0  0  0  0  0  0  0
  -12.3783    0.9306    4.8153 N   0  0  0  0  0  0  0  0  0  0  0  0
  -12.0626    0.1659    5.9538 C   0  0  0  0  0  0  0  0  0  0  0  0
  -12.3819   -1.1582    6.0147 N   0  0  0  0  0  0  0  0  0  0  0  0
  -11.5537    0.7589    7.0714 N   0  0  0  0  0  0  0  0  0  0  0  0
   -9.0193   -0.2457    1.1102 C   0  0  0  0  0  0  0  0  0  0  0  0
  -10.0113    0.7689    1.1985 C   0  0  0  0  0  0  0  0  0  0  0  0
  -10.4158    1.4660    0.0262 C   0  0  0  0  0  0  0  0  0  0  0  0
   -9.8288    1.1479   -1.2286 C   0  0  0  0  0  0  0  0  0  0  0  0
   -8.8376    0.1351   -1.3133 C   0  0  0  0  0  0  0  0  0  0  0  0
   -8.4340   -0.5620   -0.1442 C   0  0  0  0  0  0  0  0  0  0  0  0
  2  4  1  0  0  0  0
  3  5  1  0  0  0  0
  4  7  1  0  0  0  0
  6  1  1  0  0  0  0
  7 10  1  0  0  0  0
  8  6  1  0  0  0  0
  8 11  1  0  0  0  0
  9  6  1  0  0  0  0
 10 13  1  0  0  0  0
 11 14  1  0  0  0  0
 12  9  1  0  0  0  0
 14 12  1  0  0  0  0
 14 15  1  0  0  0  0
 15 16  1  0  0  0  0
 15 17  1  0  0  0  0
 18  2  1  0  0  0  0
 18 23  2  0  0  0  0
 19  1  1  0  0  0  0
 19 18  1  0  0  0  0
 20 19  2  0  0  0  0
 21  3  1  0  0  0  0
 21 20  1  0  0  0  0
 22 21  2  0  0  0  0
 22 23  1  0  0  0  0
M  END
>  <CHROM.1>
85.27570623,179.42614237,-140.85654668,-67.76814140,-101.68290033,176.28784431
136.09979368,-145.14436727,-151.16583986,-165.16436135,-76.23223311,-10.03840120
0.46938185,2.26906740,2.37579870,-0.37917271,1.75425084

>  <Name>
1uui_lig

>  <RI>
0

>  <Rbt.Current_Directory>
/home/itssahil/PROJECTS/Mol_Feturizer/New_Systems/rnas/1uui

>  <Rbt.Executable>
rbdock ($Id: //depot/dev/client3/rdock/2013.1/src/exe/rbdock.cxx#4 $)

>  <Rbt.Library>
libRbt.so (2013.1, Build901 2013/11/27)

>  <Rbt.Parameter_File>
/export/apps/rDock/src/rDock_2013.1_src/data/scripts/dock_solv.prm

>  <Rbt.Receptor>
prm/pocket_docking_3.prm

>  <SCORE>
-25.9167

>  <SCORE.INTER>
-27.6288

>  <SCORE.INTER.CONST>
1

>  <SCORE.INTER.POLAR>
-3.8225

>  <SCORE.INTER.ROT>
10

>  <SCORE.INTER.SOLV>
10.3509

>  <SCORE.INTER.VDW>
-19.3945

>  <SCORE.INTER.norm>
-1.20125

>  <SCORE.INTRA>
1.70838

>  <SCORE.INTRA.DIHEDRAL>
-5.11471

>  <SCORE.INTRA.DIHEDRAL.0>
23.4151

>  <SCORE.INTRA.POLAR>
0

>  <SCORE.INTRA.POLAR.0>
0

>  <SCORE.INTRA.REPUL>
0

>  <SCORE.INTRA.REPUL.0>
0

>  <SCORE.INTRA.SOLV>
0.0133601

>  <SCORE.INTRA.SOLV.lig_0>
-17.3568

>  <SCORE.INTRA.VDW>
4.25905

>  <SCORE.INTRA.VDW.0>
1.0768

>  <SCORE.INTRA.norm>
0.0742772

>  <SCORE.RESTR>
0.00369845

>  <SCORE.RESTR.CAVITY>
0.00369845

>  <SCORE.RESTR.norm>
0.000160802

>  <SCORE.SYSTEM>
0

>  <SCORE.SYSTEM.CONST>
0

>  <SCORE.SYSTEM.DIHEDRAL>
0

>  <SCORE.SYSTEM.SOLV>
0

>  <SCORE.SYSTEM.norm>
0

>  <SCORE.heavy>
23

>  <SCORE.norm>
-1.12681

>  <RMSD>
1.599

$$$$
1uui_lig
 OpenBabel11021811413D
libRbt.so/2013.1/901 2013/11/27
 23 24  0  0  0  0  0  0  0  0999 V2000
  -12.5936    0.0057    1.6580 C   0  0  0  0  0  0  0  0  0  0  0  0
   -9.7992    0.7835    1.8526 O   0  0  0  0  0  0  0  0  0  0  0  0
  -12.4812    1.6971   -3.0947 O   0  0  0  0  0  0  0  0  0  0  0  0
   -9.1126   -0.4737    1.8096 C   0  0  0  0  0  0  0  0  0  0  0  0
  -13.1470    2.9616   -3.0531 C   0  0  0  0  0  0  0  0  0  0  0  0
  -14.0341    0.4230    1.6445 N   0  0  0  0  0  0  0  0  0  0  0  0
   -7.7930   -0.2970    1.0569 C   0  0  0  0  0  0  0  0  0  0  0  0
  -14.2242    1.7282    2.3339 C   0  0  0  0  0  0  0  0  0  0  0  0
  -14.8916   -0.6070    2.2881 C   0  0  0  0  0  0  0  0  0  0  0  0
   -7.0125   -1.6153    1.0516 C   0  0  0  0  0  0  0  0  0  0  0  0
  -13.7997    1.6656    3.8110 C   0  0  0  0  0  0  0  0  0  0  0  0
  -14.4838   -0.8513    3.7510 C   0  0  0  0  0  0  0  0  0  0  0  0
   -7.7974   -2.6511    0.3434 N   0  0  0  0  0  0  0  0  0  0  0  0
  -13.6366    0.2575    4.2907 N   0  0  0  0  0  0  0  0  0  0  0  0
  -12.8571    0.0177    5.4376 C   0  0  0  0  0  0  0  0  0  0  0  0
  -12.5584   -1.2553    5.8239 N   0  0  0  0  0  0  0  0  0  0  0  0
  -12.4971    1.0431    6.2614 N   0  0  0  0  0  0  0  0  0  0  0  0
  -10.4753    1.0153    0.6135 C   0  0  0  0  0  0  0  0  0  0  0  0
  -11.8420    0.6509    0.4706 C   0  0  0  0  0  0  0  0  0  0  0  0
  -12.5090    0.8792   -0.7651 C   0  0  0  0  0  0  0  0  0  0  0  0
  -11.8095    1.4700   -1.8524 C   0  0  0  0  0  0  0  0  0  0  0  0
  -10.4452    1.8339   -1.7061 C   0  0  0  0  0  0  0  0  0  0  0  0
   -9.7783    1.6055   -0.4738 C   0  0  0  0  0  0  0  0  0  0  0  0
  2  4  1  0  0  0  0
  3  5  1  0  0  0  0
  4  7  1  0  0  0  0
  6  1  1  0  0  0  0
  7 10  1  0  0  0  0
  8  6  1  0  0  0  0
  8 11  1  0  0  0  0
  9  6  1  0  0  0  0
 10 13  1  0  0  0  0
 11 14  1  0  0  0  0
 12  9  1  0  0  0  0
 14 12  1  0  0  0  0
 14 15  1  0  0  0  0
 15 16  1  0  0  0  0
 15 17  1  0  0  0  0
 18  2  1  0  0  0  0
 18 23  2  0  0  0  0
 19  1  1  0  0  0  0
 19 18  1  0  0  0  0
 20 19  2  0  0  0  0
 21  3  1  0  0  0  0
 21 20  1  0  0  0  0
 22 21  2  0  0  0  0
 22 23  1  0  0  0  0
M  END
>  <CHROM.1>
80.32433954,177.53102164,-85.23098055,61.92277888,71.17208331,-172.63755440
-52.31512017,-79.92753466,94.33130535,146.82794354,86.45799422,-11.71037317
0.40776523,1.50631394,2.08408444,-0.35982201,1.88841708

>  <Name>
1uui_lig

>  <RI>
0

>  <Rbt.Current_Directory>
/home/itssahil/PROJECTS/Mol_Feturizer/New_Systems/rnas/1uui

>  <Rbt.Executable>
rbdock ($Id: //depot/dev/client3/rdock/2013.1/src/exe/rbdock.cxx#4 $)

>  <Rbt.Library>
libRbt.so (2013.1, Build901 2013/11/27)

>  <Rbt.Parameter_File>
/export/apps/rDock/src/rDock_2013.1_src/data/scripts/dock_solv.prm

>  <Rbt.Receptor>
prm/pocket_docking_2.prm

>  <SCORE>
-22.0433

>  <SCORE.INTER>
-19.6933

>  <SCORE.INTER.CONST>
1

>  <SCORE.INTER.POLAR>
-2.95733

>  <SCORE.INTER.ROT>
10

>  <SCORE.INTER.SOLV>
8.10168

>  <SCORE.INTER.VDW>
-16.2383

>  <SCORE.INTER.norm>
-0.856229

>  <SCORE.INTRA>
-3.33625

>  <SCORE.INTRA.DIHEDRAL>
-5.83228

>  <SCORE.INTRA.DIHEDRAL.0>
23.4151

>  <SCORE.INTRA.POLAR>
0

>  <SCORE.INTRA.POLAR.0>
0

>  <SCORE.INTRA.REPUL>
0

>  <SCORE.INTRA.REPUL.0>
0

>  <SCORE.INTRA.SOLV>
0.0192192

>  <SCORE.INTRA.SOLV.lig_0>
-17.3568

>  <SCORE.INTRA.VDW>
-0.429718

>  <SCORE.INTRA.VDW.0>
1.0768

>  <SCORE.INTRA.norm>
-0.145054

>  <SCORE.RESTR>
0.986176

>  <SCORE.RESTR.CAVITY>
0.986176

>  <SCORE.RESTR.norm>
0.0428772

>  <SCORE.SYSTEM>
0

>  <SCORE.SYSTEM.CONST>
0

>  <SCORE.SYSTEM.DIHEDRAL>
0

>  <SCORE.SYSTEM.SOLV>
0

>  <SCORE.SYSTEM.norm>
0

>  <SCORE.heavy>
23

>  <SCORE.norm>
-0.958406

>  <RMSD>
1.608

$$$$
1uui_lig
 OpenBabel11021811413D
libRbt.so/2013.1/901 2013/11/27
 23 24  0  0  0  0  0  0  0  0999 V2000
  -11.1676    0.6330    1.7312 C   0  0  0  0  0  0  0  0  0  0  0  0
   -8.6644   -0.5634    0.8629 O   0  0  0  0  0  0  0  0  0  0  0  0
  -11.1806    3.1786   -2.6256 O   0  0  0  0  0  0  0  0  0  0  0  0
   -7.3488   -0.1100    1.2059 C   0  0  0  0  0  0  0  0  0  0  0  0
  -10.9054    4.5092   -2.1809 C   0  0  0  0  0  0  0  0  0  0  0  0
  -12.1157   -0.5172    1.5655 N   0  0  0  0  0  0  0  0  0  0  0  0
   -6.7265   -1.0896    2.2021 C   0  0  0  0  0  0  0  0  0  0  0  0
  -13.4673   -0.0477    1.1564 C   0  0  0  0  0  0  0  0  0  0  0  0
  -12.2234   -1.3023    2.8235 C   0  0  0  0  0  0  0  0  0  0  0  0
   -5.3159   -0.6266    2.5802 C   0  0  0  0  0  0  0  0  0  0  0  0
  -14.0926    0.8885    2.2045 C   0  0  0  0  0  0  0  0  0  0  0  0
  -12.7289   -0.4370    3.9906 C   0  0  0  0  0  0  0  0  0  0  0  0
   -4.6377   -1.6905    3.3539 N   0  0  0  0  0  0  0  0  0  0  0  0
  -13.3727    0.8270    3.5151 N   0  0  0  0  0  0  0  0  0  0  0  0
  -13.5196    1.8945    4.4203 C   0  0  0  0  0  0  0  0  0  0  0  0
  -14.7159    2.5345    4.5552 N   0  0  0  0  0  0  0  0  0  0  0  0
  -12.4396    2.3995    5.0823 N   0  0  0  0  0  0  0  0  0  0  0  0
   -9.2956    0.3786   -0.0090 C   0  0  0  0  0  0  0  0  0  0  0  0
  -10.5215    0.9894    0.3722 C   0  0  0  0  0  0  0  0  0  0  0  0
  -11.1478    1.9223   -0.5002 C   0  0  0  0  0  0  0  0  0  0  0  0
  -10.5485    2.2417   -1.7489 C   0  0  0  0  0  0  0  0  0  0  0  0
   -9.3236    1.6312   -2.1262 C   0  0  0  0  0  0  0  0  0  0  0  0
   -8.6982    0.6991   -1.2568 C   0  0  0  0  0  0  0  0  0  0  0  0
  2  4  1  0  0  0  0
  3  5  1  0  0  0  0
  4  7  1  0  0  0  0
  6  1  1  0  0  0  0
  7 10  1  0  0  0  0
  8  6  1  0  0  0  0
  8 11  1  0  0  0  0
  9  6  1  0  0  0  0
 10 13  1  0  0  0  0
 11 14  1  0  0  0  0
 12  9  1  0  0  0  0
 14 12  1  0  0  0  0
 14 15  1  0  0  0  0
 15 16  1  0  0  0  0
 15 17  1  0  0  0  0
 18  2  1  0  0  0  0
 18 23  2  0  0  0  0
 19  1  1  0  0  0  0
 19 18  1  0  0  0  0
 20 19  2  0  0  0  0
 21  3  1  0  0  0  0
 21 20  1  0  0  0  0
 22 21  2  0  0  0  0
 22 23  1  0  0  0  0
M  END
>  <CHROM.1>
176.68515702,179.82118505,-86.10267672,-170.32263690,88.03500018,37.03438853
108.07912297,-75.34882235,-121.09047325,-91.06558336,79.44308610,-10.59975969
0.79029599,1.42887776,-2.99387169,0.34654396,-1.14736159

>  <Name>
1uui_lig

>  <RI>
0

>  <Rbt.Current_Directory>
/home/itssahil/PROJECTS/Mol_Feturizer/New_Systems/rnas/1uui

>  <Rbt.Executable>
rbdock ($Id: //depot/dev/client3/rdock/2013.1/src/exe/rbdock.cxx#4 $)

>  <Rbt.Library>
libRbt.so (2013.1, Build901 2013/11/27)

>  <Rbt.Parameter_File>
/export/apps/rDock/src/rDock_2013.1_src/data/scripts/dock_solv.prm

>  <Rbt.Receptor>
prm/pocket_docking_2.prm

>  <SCORE>
-20.2187

>  <SCORE.INTER>
-14.7354

>  <SCORE.INTER.CONST>
1

>  <SCORE.INTER.POLAR>
-2.71625

>  <SCORE.INTER.ROT>
10

>  <SCORE.INTER.SOLV>
4.99157

>  <SCORE.INTER.VDW>
-12.6999

>  <SCORE.INTER.norm>
-0.640668

>  <SCORE.INTRA>
-5.91883

>  <SCORE.INTRA.DIHEDRAL>
-7.46131

>  <SCORE.INTRA.DIHEDRAL.0>
23.4151

>  <SCORE.INTRA.POLAR>
0

>  <SCORE.INTRA.POLAR.0>
0

>  <SCORE.INTRA.REPUL>
0

>  <SCORE.INTRA.REPUL.0>
0

>  <SCORE.INTRA.SOLV>
-0.0230869

>  <SCORE.INTRA.SOLV.lig_0>
-17.3568

>  <SCORE.INTRA.VDW>
-2.17663

>  <SCORE.INTRA.VDW.0>
1.0768

>  <SCORE.INTRA.norm>
-0.25734

>  <SCORE.RESTR>
0.435434

>  <SCORE.RESTR.CAVITY>
0.435434

>  <SCORE.RESTR.norm>
0.0189319

>  <SCORE.SYSTEM>
0

>  <SCORE.SYSTEM.CONST>
0

>  <SCORE.SYSTEM.DIHEDRAL>
0

>  <SCORE.SYSTEM.SOLV>
0

>  <SCORE.SYSTEM.norm>
0

>  <SCORE.heavy>
23

>  <SCORE.norm>
-0.879076

>  <RMSD>
1.609

$$$$
1uui_lig
 OpenBabel11021811413D
libRbt.so/2013.1/901 2013/11/27
 23 24  0  0  0  0  0  0  0  0999 V2000
  -11.1042    0.5512    1.8064 C   0  0  0  0  0  0  0  0  0  0  0  0
   -8.6962   -0.7692    0.8527 O   0  0  0  0  0  0  0  0  0  0  0  0
  -11.0354    3.2309   -2.4686 O   0  0  0  0  0  0  0  0  0  0  0  0
   -7.5829   -0.2248    1.5726 C   0  0  0  0  0  0  0  0  0  0  0  0
  -10.9277    4.5064   -1.8318 C   0  0  0  0  0  0  0  0  0  0  0  0
  -12.1191   -0.5381    1.6253 N   0  0  0  0  0  0  0  0  0  0  0  0
   -6.9101   -1.3418    2.3718 C   0  0  0  0  0  0  0  0  0  0  0  0
  -13.4330    0.0145    1.1973 C   0  0  0  0  0  0  0  0  0  0  0  0
  -12.2934   -1.3158    2.8804 C   0  0  0  0  0  0  0  0  0  0  0  0
   -6.1956   -2.3083    1.4218 C   0  0  0  0  0  0  0  0  0  0  0  0
  -14.0143    0.9868    2.2378 C   0  0  0  0  0  0  0  0  0  0  0  0
  -12.7614   -0.4217    4.0413 C   0  0  0  0  0  0  0  0  0  0  0  0
   -4.9659   -1.6702    0.9010 N   0  0  0  0  0  0  0  0  0  0  0  0
  -13.3187    0.8801    3.5585 N   0  0  0  0  0  0  0  0  0  0  0  0
  -13.4125    1.9540    4.4632 C   0  0  0  0  0  0  0  0  0  0  0  0
  -14.5663    2.6717    4.5760 N   0  0  0  0  0  0  0  0  0  0  0  0
  -12.3148    2.3855    5.1476 N   0  0  0  0  0  0  0  0  0  0  0  0
   -9.2827    0.2375    0.0228 C   0  0  0  0  0  0  0  0  0  0  0  0
  -10.4612    0.9103    0.4467 C   0  0  0  0  0  0  0  0  0  0  0  0
  -11.0435    1.9076   -0.3841 C   0  0  0  0  0  0  0  0  0  0  0  0
  -10.4475    2.2292   -1.6338 C   0  0  0  0  0  0  0  0  0  0  0  0
   -9.2700    1.5565   -2.0537 C   0  0  0  0  0  0  0  0  0  0  0  0
   -8.6887    0.5602   -1.2259 C   0  0  0  0  0  0  0  0  0  0  0  0
  2  4  1  0  0  0  0
  3  5  1  0  0  0  0
  4  7  1  0  0  0  0
  6  1  1  0  0  0  0
  7 10  1  0  0  0  0
  8  6  1  0  0  0  0
  8 11  1  0  0  0  0
  9  6  1  0  0  0  0
 10 13  1  0  0  0  0
 11 14  1  0  0  0  0
 12  9  1  0  0  0  0
 14 12  1  0  0  0  0
 14 15  1  0  0  0  0
 15 16  1  0  0  0  0
 15 17  1  0  0  0  0
 18  2  1  0  0  0  0
 18 23  2  0  0  0  0
 19  1  1  0  0  0  0
 19 18  1  0  0  0  0
 20 19  2  0  0  0  0
 21  3  1  0  0  0  0
 21 20  1  0  0  0  0
 22 21  2  0  0  0  0
 22 23  1  0  0  0  0
M  END
>  <CHROM.1>
-175.85888955,70.22042453,-83.66135032,73.79113840,58.83017019,36.63643911
-68.98071484,-67.15150944,-100.13061875,-90.72934691,66.55848079,-10.63079730
0.69456293,1.33281830,-2.89125566,0.49407328,-1.03002278

>  <Name>
1uui_lig

>  <RI>
0

>  <Rbt.Current_Directory>
/home/itssahil/PROJECTS/Mol_Feturizer/New_Systems/rnas/1uui

>  <Rbt.Executable>
rbdock ($Id: //depot/dev/client3/rdock/2013.1/src/exe/rbdock.cxx#4 $)

>  <Rbt.Library>
libRbt.so (2013.1, Build901 2013/11/27)

>  <Rbt.Parameter_File>
/export/apps/rDock/src/rDock_2013.1_src/data/scripts/dock_solv.prm

>  <Rbt.Receptor>
prm/pocket_docking_2.prm

>  <SCORE>
-10.7059

>  <SCORE.INTER>
-4.38289

>  <SCORE.INTER.CONST>
1

>  <SCORE.INTER.POLAR>
-0.827726

>  <SCORE.INTER.ROT>
10

>  <SCORE.INTER.SOLV>
4.01785

>  <SCORE.INTER.VDW>
-11.7688

>  <SCORE.INTER.norm>
-0.190561

>  <SCORE.INTRA>
-6.50413

>  <SCORE.INTRA.DIHEDRAL>
-8.0187

>  <SCORE.INTRA.DIHEDRAL.0>
23.4151

>  <SCORE.INTRA.POLAR>
0

>  <SCORE.INTRA.POLAR.0>
0

>  <SCORE.INTRA.REPUL>
0

>  <SCORE.INTRA.REPUL.0>
0

>  <SCORE.INTRA.SOLV>
0.231528

>  <SCORE.INTRA.SOLV.lig_0>
-17.3568

>  <SCORE.INTRA.VDW>
-2.61054

>  <SCORE.INTRA.VDW.0>
1.0768

>  <SCORE.INTRA.norm>
-0.282788

>  <SCORE.RESTR>
0.181151

>  <SCORE.RESTR.CAVITY>
0.181151

>  <SCORE.RESTR.norm>
0.00787612

>  <SCORE.SYSTEM>
0

>  <SCORE.SYSTEM.CONST>
0

>  <SCORE.SYSTEM.DIHEDRAL>
0

>  <SCORE.SYSTEM.SOLV>
0

>  <SCORE.SYSTEM.norm>
0

>  <SCORE.heavy>
23

>  <SCORE.norm>
-0.465473

>  <RMSD>
1.630

$$$$
1uui_lig
 OpenBabel11021811413D
libRbt.so/2013.1/901 2013/11/27
 23 24  0  0  0  0  0  0  0  0999 V2000
  -12.0097    0.4314    3.2172 C   0  0  0  0  0  0  0  0  0  0  0  0
   -9.7581   -0.5848    1.6846 O   0  0  0  0  0  0  0  0  0  0  0  0
  -12.8093    3.6728   -0.5665 O   0  0  0  0  0  0  0  0  0  0  0  0
   -8.3913   -0.1827    1.8411 C   0  0  0  0  0  0  0  0  0  0  0  0
  -13.8955    3.1309   -1.3218 C   0  0  0  0  0  0  0  0  0  0  0  0
  -13.4988    0.4472    3.3955 N   0  0  0  0  0  0  0  0  0  0  0  0
   -7.6470   -0.4198    0.5262 C   0  0  0  0  0  0  0  0  0  0  0  0
  -13.9391    1.6525    4.1493 C   0  0  0  0  0  0  0  0  0  0  0  0
  -13.9622   -0.7761    4.1021 C   0  0  0  0  0  0  0  0  0  0  0  0
   -6.4684   -1.3713    0.7558 C   0  0  0  0  0  0  0  0  0  0  0  0
  -13.3281    1.7036    5.5599 C   0  0  0  0  0  0  0  0  0  0  0  0
  -13.3206   -0.9044    5.4942 C   0  0  0  0  0  0  0  0  0  0  0  0
   -6.9751   -2.6817    1.2213 N   0  0  0  0  0  0  0  0  0  0  0  0
  -12.7368    0.3900    5.9653 N   0  0  0  0  0  0  0  0  0  0  0  0
  -11.7816    0.3662    6.9985 C   0  0  0  0  0  0  0  0  0  0  0  0
  -11.5383    1.4784    7.7487 N   0  0  0  0  0  0  0  0  0  0  0  0
  -10.9847   -0.7246    7.1848 N   0  0  0  0  0  0  0  0  0  0  0  0
  -10.5227    0.4860    1.1235 C   0  0  0  0  0  0  0  0  0  0  0  0
  -11.6334    1.0155    1.8358 C   0  0  0  0  0  0  0  0  0  0  0  0
  -12.3937    2.0774    1.2717 C   0  0  0  0  0  0  0  0  0  0  0  0
  -12.0426    2.6063   -0.0001 C   0  0  0  0  0  0  0  0  0  0  0  0
  -10.9322    2.0763   -0.7082 C   0  0  0  0  0  0  0  0  0  0  0  0
  -10.1734    1.0157   -0.1468 C   0  0  0  0  0  0  0  0  0  0  0  0
  2  4  1  0  0  0  0
  3  5  1  0  0  0  0
  4  7  1  0  0  0  0
  6  1  1  0  0  0  0
  7 10  1  0  0  0  0
  8  6  1  0  0  0  0
  8 11  1  0  0  0  0
  9  6  1  0  0  0  0
 10 13  1  0  0  0  0
 11 14  1  0  0  0  0
 12  9  1  0  0  0  0
 14 12  1  0  0  0  0
 14 15  1  0  0  0  0
 15 16  1  0  0  0  0
 15 17  1  0  0  0  0
 18  2  1  0  0  0  0
 18 23  2  0  0  0  0
 19  1  1  0  0  0  0
 19 18  1  0  0  0  0
 20 19  2  0  0  0  0
 21  3  1  0  0  0  0
 21 20  1  0  0  0  0
 22 21  2  0  0  0  0
 22 23  1  0  0  0  0
M  END
>  <CHROM.1>
-85.28674187,-121.49660685,-96.16008196,62.15401031,23.69530080,9.42201042
-145.15525252,169.79333050,-120.63058471,-145.09265713,-88.41235956,-11.30832512
0.60670770,2.71780838,2.12791343,-0.53980429,1.89135020

>  <Name>
1uui_lig

>  <RI>
0

>  <Rbt.Current_Directory>
/home/itssahil/PROJECTS/Mol_Feturizer/New_Systems/rnas/1uui

>  <Rbt.Executable>
rbdock ($Id: //depot/dev/client3/rdock/2013.1/src/exe/rbdock.cxx#4 $)

>  <Rbt.Library>
libRbt.so (2013.1, Build901 2013/11/27)

>  <Rbt.Parameter_File>
/export/apps/rDock/src/rDock_2013.1_src/data/scripts/dock_solv.prm

>  <Rbt.Receptor>
prm/pocket_docking_3.prm

>  <SCORE>
-28.3197

>  <SCORE.INTER>
-30.0311

>  <SCORE.INTER.CONST>
1

>  <SCORE.INTER.POLAR>
-3.76633

>  <SCORE.INTER.ROT>
10

>  <SCORE.INTER.SOLV>
10.4894

>  <SCORE.INTER.VDW>
-21.2294

>  <SCORE.INTER.norm>
-1.3057

>  <SCORE.INTRA>
1.71142

>  <SCORE.INTRA.DIHEDRAL>
2.27456

>  <SCORE.INTRA.DIHEDRAL.0>
23.4151

>  <SCORE.INTRA.POLAR>
0

>  <SCORE.INTRA.POLAR.0>
0

>  <SCORE.INTRA.REPUL>
0

>  <SCORE.INTRA.REPUL.0>
0

>  <SCORE.INTRA.SOLV>
0.243001

>  <SCORE.INTRA.SOLV.lig_0>
-17.3568

>  <SCORE.INTRA.VDW>
0.452644

>  <SCORE.INTRA.VDW.0>
1.0768

>  <SCORE.INTRA.norm>
0.0744097

>  <SCORE.RESTR>
0

>  <SCORE.RESTR.CAVITY>
0

>  <SCORE.RESTR.norm>
0

>  <SCORE.SYSTEM>
0

>  <SCORE.SYSTEM.CONST>
0

>  <SCORE.SYSTEM.DIHEDRAL>
0

>  <SCORE.SYSTEM.SOLV>
0

>  <SCORE.SYSTEM.norm>
0

>  <SCORE.heavy>
23

>  <SCORE.norm>
-1.23129

>  <RMSD>
1.640

$$$$
1uui_lig
 OpenBabel11021811413D
libRbt.so/2013.1/901 2013/11/27
 23 24  0  0  0  0  0  0  0  0999 V2000
  -11.0604    0.8600    2.8349 C   0  0  0  0  0  0  0  0  0  0  0  0
   -8.5813   -0.3890    1.9714 O   0  0  0  0  0  0  0  0  0  0  0  0
  -12.1088    1.5897   -2.0468 O   0  0  0  0  0  0  0  0  0  0  0  0
   -7.2237   -0.0868    1.6259 C   0  0  0  0  0  0  0  0  0  0  0  0
  -13.0852    0.5918   -2.3548 C   0  0  0  0  0  0  0  0  0  0  0  0
  -12.1686    1.8558    3.0074 N   0  0  0  0  0  0  0  0  0  0  0  0
   -6.3663   -0.1206    2.8920 C   0  0  0  0  0  0  0  0  0  0  0  0
  -11.9435    2.7116    4.2039 C   0  0  0  0  0  0  0  0  0  0  0  0
  -13.4833    1.1720    3.1271 C   0  0  0  0  0  0  0  0  0  0  0  0
   -4.8948    0.1113    2.5344 C   0  0  0  0  0  0  0  0  0  0  0  0
  -11.8908    1.8853    5.5002 C   0  0  0  0  0  0  0  0  0  0  0  0
  -13.5169    0.2140    4.3302 C   0  0  0  0  0  0  0  0  0  0  0  0
   -4.1362    0.4496    3.7594 N   0  0  0  0  0  0  0  0  0  0  0  0
  -12.4190    0.4987    5.3059 N   0  0  0  0  0  0  0  0  0  0  0  0
  -12.0560   -0.5008    6.2278 C   0  0  0  0  0  0  0  0  0  0  0  0
  -11.0136   -0.3120    7.0861 N   0  0  0  0  0  0  0  0  0  0  0  0
  -12.6490   -1.7282    6.1931 N   0  0  0  0  0  0  0  0  0  0  0  0
   -9.4662    0.1116    0.9652 C   0  0  0  0  0  0  0  0  0  0  0  0
  -10.6906    0.7299    1.3391 C   0  0  0  0  0  0  0  0  0  0  0  0
  -11.5695    1.2222    0.3346 C   0  0  0  0  0  0  0  0  0  0  0  0
  -11.2230    1.0957   -1.0381 C   0  0  0  0  0  0  0  0  0  0  0  0
   -9.9991    0.4790   -1.4082 C   0  0  0  0  0  0  0  0  0  0  0  0
   -9.1216   -0.0138   -0.4067 C   0  0  0  0  0  0  0  0  0  0  0  0
  2  4  1  0  0  0  0
  3  5  1  0  0  0  0
  4  7  1  0  0  0  0
  6  1  1  0  0  0  0
  7 10  1  0  0  0  0
  8  6  1  0  0  0  0
  8 11  1  0  0  0  0
  9  6  1  0  0  0  0
 10 13  1  0  0  0  0
 11 14  1  0  0  0  0
 12  9  1  0  0  0  0
 14 12  1  0  0  0  0
 14 15  1  0  0  0  0
 15 16  1  0  0  0  0
 15 17  1  0  0  0  0
 18  2  1  0  0  0  0
 18 23  2  0  0  0  0
 19  1  1  0  0  0  0
 19 18  1  0  0  0  0
 20 19  2  0  0  0  0
 21  3  1  0  0  0  0
 21 20  1  0  0  0  0
 22 21  2  0  0  0  0
 22 23  1  0  0  0  0
M  END
>  <CHROM.1>
158.28114531,176.39289566,-139.48401585,164.42208621,-151.14955394,-15.31886937
-130.63875460,173.71642623,-139.23825791,164.29695592,-85.58176872,-10.42865127
0.52649530,2.50943522,2.22050261,-0.10768424,1.68152129

>  <Name>
1uui_lig

>  <RI>
0

>  <Rbt.Current_Directory>
/home/itssahil/PROJECTS/Mol_Feturizer/New_Systems/rnas/1uui

>  <Rbt.Executable>
rbdock ($Id: //depot/dev/client3/rdock/2013.1/src/exe/rbdock.cxx#4 $)

>  <Rbt.Library>
libRbt.so (2013.1, Build901 2013/11/27)

>  <Rbt.Parameter_File>
/export/apps/rDock/src/rDock_2013.1_src/data/scripts/dock_solv.prm

>  <Rbt.Receptor>
prm/pocket_docking_3.prm

>  <SCORE>
-17.8553

>  <SCORE.INTER>
-17.3487

>  <SCORE.INTER.CONST>
1

>  <SCORE.INTER.POLAR>
-2.38888

>  <SCORE.INTER.ROT>
10

>  <SCORE.INTER.SOLV>
10.5136

>  <SCORE.INTER.VDW>
-17.3741

>  <SCORE.INTER.norm>
-0.754293

>  <SCORE.INTRA>
-0.506519

>  <SCORE.INTRA.DIHEDRAL>
-4.85478

>  <SCORE.INTRA.DIHEDRAL.0>
23.4151

>  <SCORE.INTRA.POLAR>
0

>  <SCORE.INTRA.POLAR.0>
0

>  <SCORE.INTRA.REPUL>
0

>  <SCORE.INTRA.REPUL.0>
0

>  <SCORE.INTRA.SOLV>
-0.0809212

>  <SCORE.INTRA.SOLV.lig_0>
-17.3568

>  <SCORE.INTRA.VDW>
1.96133

>  <SCORE.INTRA.VDW.0>
1.0768

>  <SCORE.INTRA.norm>
-0.0220226

>  <SCORE.RESTR>
0

>  <SCORE.RESTR.CAVITY>
0

>  <SCORE.RESTR.norm>
0

>  <SCORE.SYSTEM>
0

>  <SCORE.SYSTEM.CONST>
0

>  <SCORE.SYSTEM.DIHEDRAL>
0

>  <SCORE.SYSTEM.SOLV>
0

>  <SCORE.SYSTEM.norm>
0

>  <SCORE.heavy>
23

>  <SCORE.norm>
-0.776315

>  <RMSD>
1.655

$$$$
1uui_lig
 OpenBabel11021811413D
libRbt.so/2013.1/901 2013/11/27
 23 24  0  0  0  0  0  0  0  0999 V2000
  -11.0774    0.1190    2.0244 C   0  0  0  0  0  0  0  0  0  0  0  0
   -8.2692   -0.6146    2.1904 O   0  0  0  0  0  0  0  0  0  0  0  0
  -10.2570    1.1985   -2.8360 O   0  0  0  0  0  0  0  0  0  0  0  0
   -6.9706   -0.0596    2.4347 C   0  0  0  0  0  0  0  0  0  0  0  0
  -10.0150    2.6012   -2.9698 C   0  0  0  0  0  0  0  0  0  0  0  0
  -12.4130   -0.4206    1.6067 N   0  0  0  0  0  0  0  0  0  0  0  0
   -5.9615   -1.1983    2.5900 C   0  0  0  0  0  0  0  0  0  0  0  0
  -13.3849    0.6785    1.3574 C   0  0  0  0  0  0  0  0  0  0  0  0
  -12.9599   -1.3416    2.6378 C   0  0  0  0  0  0  0  0  0  0  0  0
   -5.8783   -2.0051    1.2903 C   0  0  0  0  0  0  0  0  0  0  0  0
  -13.6292    1.5268    2.6169 C   0  0  0  0  0  0  0  0  0  0  0  0
  -13.1380   -0.6350    3.9924 C   0  0  0  0  0  0  0  0  0  0  0  0
   -4.9058   -3.1085    1.4553 N   0  0  0  0  0  0  0  0  0  0  0  0
  -13.1242    0.8548    3.8551 N   0  0  0  0  0  0  0  0  0  0  0  0
  -12.8703    1.6380    4.9964 C   0  0  0  0  0  0  0  0  0  0  0  0
  -11.8915    2.5871    4.9869 N   0  0  0  0  0  0  0  0  0  0  0  0
  -13.5028    1.3754    6.1756 N   0  0  0  0  0  0  0  0  0  0  0  0
   -8.7693   -0.1557    0.9313 C   0  0  0  0  0  0  0  0  0  0  0  0
  -10.1360    0.2136    0.8012 C   0  0  0  0  0  0  0  0  0  0  0  0
  -10.6299    0.6651   -0.4542 C   0  0  0  0  0  0  0  0  0  0  0  0
   -9.7583    0.7461   -1.5740 C   0  0  0  0  0  0  0  0  0  0  0  0
   -8.3938    0.3778   -1.4407 C   0  0  0  0  0  0  0  0  0  0  0  0
   -7.9000   -0.0740   -0.1886 C   0  0  0  0  0  0  0  0  0  0  0  0
  2  4  1  0  0  0  0
  3  5  1  0  0  0  0
  4  7  1  0  0  0  0
  6  1  1  0  0  0  0
  7 10  1  0  0  0  0
  8  6  1  0  0  0  0
  8 11  1  0  0  0  0
  9  6  1  0  0  0  0
 10 13  1  0  0  0  0
 11 14  1  0  0  0  0
 12  9  1  0  0  0  0
 14 12  1  0  0  0  0
 14 15  1  0  0  0  0
 15 16  1  0  0  0  0
 15 17  1  0  0  0  0
 18  2  1  0  0  0  0
 18 23  2  0  0  0  0
 19  1  1  0  0  0  0
 19 18  1  0  0  0  0
 20 19  2  0  0  0  0
 21  3  1  0  0  0  0
 21 20  1  0  0  0  0
 22 21  2  0  0  0  0
 22 23  1  0  0  0  0
M  END
>  <CHROM.1>
-120.22092753,62.43746455,-96.24563829,-179.64424555,159.60001132,-64.63753764
71.15944325,93.04665743,-139.07254763,-139.23706428,94.68737938,-10.24150497
0.20448649,1.63588613,-2.67137058,0.40478917,-1.34416910

>  <Name>
1uui_lig

>  <RI>
0

>  <Rbt.Current_Directory>
/home/itssahil/PROJECTS/Mol_Feturizer/New_Systems/rnas/1uui

>  <Rbt.Executable>
rbdock ($Id: //depot/dev/client3/rdock/2013.1/src/exe/rbdock.cxx#4 $)

>  <Rbt.Library>
libRbt.so (2013.1, Build901 2013/11/27)

>  <Rbt.Parameter_File>
/export/apps/rDock/src/rDock_2013.1_src/data/scripts/dock_solv.prm

>  <Rbt.Receptor>
prm/pocket_docking_2.prm

>  <SCORE>
-15.3267

>  <SCORE.INTER>
-14.7313

>  <SCORE.INTER.CONST>
1

>  <SCORE.INTER.POLAR>
-1.87313

>  <SCORE.INTER.ROT>
10

>  <SCORE.INTER.SOLV>
6.62047

>  <SCORE.INTER.VDW>
-16.0506

>  <SCORE.INTER.norm>
-0.640493

>  <SCORE.INTRA>
-1.36833

>  <SCORE.INTRA.DIHEDRAL>
-1.63614

>  <SCORE.INTRA.DIHEDRAL.0>
23.4151

>  <SCORE.INTRA.POLAR>
0

>  <SCORE.INTRA.POLAR.0>
0

>  <SCORE.INTRA.REPUL>
0

>  <SCORE.INTRA.REPUL.0>
0

>  <SCORE.INTRA.SOLV>
-0.0286598

>  <SCORE.INTRA.SOLV.lig_0>
-17.3568

>  <SCORE.INTRA.VDW>
-0.535928

>  <SCORE.INTRA.VDW.0>
1.0768

>  <SCORE.INTRA.norm>
-0.0594926

>  <SCORE.RESTR>
0.772977

>  <SCORE.RESTR.CAVITY>
0.772977

>  <SCORE.RESTR.norm>
0.0336077

>  <SCORE.SYSTEM>
0

>  <SCORE.SYSTEM.CONST>
0

>  <SCORE.SYSTEM.DIHEDRAL>
0

>  <SCORE.SYSTEM.SOLV>
0

>  <SCORE.SYSTEM.norm>
0

>  <SCORE.heavy>
23

>  <SCORE.norm>
-0.666378

>  <RMSD>
1.680

$$$$
1uui_lig
 OpenBabel11021811413D
libRbt.so/2013.1/901 2013/11/27
 23 24  0  0  0  0  0  0  0  0999 V2000
  -11.2333    0.6003    1.7819 C   0  0  0  0  0  0  0  0  0  0  0  0
   -8.7431   -0.6743    0.9908 O   0  0  0  0  0  0  0  0  0  0  0  0
  -10.9539    3.2521   -2.5020 O   0  0  0  0  0  0  0  0  0  0  0  0
   -7.3608   -0.3892    1.2400 C   0  0  0  0  0  0  0  0  0  0  0  0
  -12.0374    2.6779   -3.2371 C   0  0  0  0  0  0  0  0  0  0  0  0
  -12.1613   -0.5573    1.5615 N   0  0  0  0  0  0  0  0  0  0  0  0
   -6.7851   -1.4695    2.1569 C   0  0  0  0  0  0  0  0  0  0  0  0
  -13.4685   -0.1039    1.0135 C   0  0  0  0  0  0  0  0  0  0  0  0
  -12.3866   -1.3057    2.8263 C   0  0  0  0  0  0  0  0  0  0  0  0
   -5.2588   -1.3500    2.2128 C   0  0  0  0  0  0  0  0  0  0  0  0
  -14.1899    0.8603    1.9704 C   0  0  0  0  0  0  0  0  0  0  0  0
  -12.9999   -0.4084    3.9148 C   0  0  0  0  0  0  0  0  0  0  0  0
   -4.8848   -0.1819    3.0412 N   0  0  0  0  0  0  0  0  0  0  0  0
  -13.5965    0.8393    3.3441 N   0  0  0  0  0  0  0  0  0  0  0  0
  -13.8283    1.9322    4.1999 C   0  0  0  0  0  0  0  0  0  0  0  0
  -13.2645    3.1476    3.9469 N   0  0  0  0  0  0  0  0  0  0  0  0
  -14.5092    1.7679    5.3699 N   0  0  0  0  0  0  0  0  0  0  0  0
   -9.2977    0.3139    0.1179 C   0  0  0  0  0  0  0  0  0  0  0  0
  -10.5143    0.9640    0.4621 C   0  0  0  0  0  0  0  0  0  0  0  0
  -11.0644    1.9429   -0.4114 C   0  0  0  0  0  0  0  0  0  0  0  0
  -10.3984    2.2689   -1.6241 C   0  0  0  0  0  0  0  0  0  0  0  0
   -9.1830    1.6189   -1.9643 C   0  0  0  0  0  0  0  0  0  0  0  0
   -8.6336    0.6410   -1.0939 C   0  0  0  0  0  0  0  0  0  0  0  0
  2  4  1  0  0  0  0
  3  5  1  0  0  0  0
  4  7  1  0  0  0  0
  6  1  1  0  0  0  0
  7 10  1  0  0  0  0
  8  6  1  0  0  0  0
  8 11  1  0  0  0  0
  9  6  1  0  0  0  0
 10 13  1  0  0  0  0
 11 14  1  0  0  0  0
 12  9  1  0  0  0  0
 14 12  1  0  0  0  0
 14 15  1  0  0  0  0
 15 16  1  0  0  0  0
 15 17  1  0  0  0  0
 18  2  1  0  0  0  0
 18 23  2  0  0  0  0
 19  1  1  0  0  0  0
 19 18  1  0  0  0  0
 20 19  2  0  0  0  0
 21  3  1  0  0  0  0
 21 20  1  0  0  0  0
 22 21  2  0  0  0  0
 22 23  1  0  0  0  0
M  END
>  <CHROM.1>
-179.14020671,168.73074068,-83.29904352,74.22399618,-58.98484718,-69.36975642
-154.08337857,80.60594852,-129.82088934,-87.90136181,-77.60819531,-10.72173913
0.71881770,1.34012590,-2.90498184,0.30658462,-1.21904361

>  <Name>
1uui_lig

>  <RI>
0

>  <Rbt.Current_Directory>
/home/itssahil/PROJECTS/Mol_Feturizer/New_Systems/rnas/1uui

>  <Rbt.Executable>
rbdock ($Id: //depot/dev/client3/rdock/2013.1/src/exe/rbdock.cxx#4 $)

>  <Rbt.Library>
libRbt.so (2013.1, Build901 2013/11/27)

>  <Rbt.Parameter_File>
/export/apps/rDock/src/rDock_2013.1_src/data/scripts/dock_solv.prm

>  <Rbt.Receptor>
prm/pocket_docking_2.prm

>  <SCORE>
-12.8129

>  <SCORE.INTER>
-6.63931

>  <SCORE.INTER.CONST>
1

>  <SCORE.INTER.POLAR>
-0.914093

>  <SCORE.INTER.ROT>
10

>  <SCORE.INTER.SOLV>
4.23393

>  <SCORE.INTER.VDW>
-13.0572

>  <SCORE.INTER.norm>
-0.288666

>  <SCORE.INTRA>
-6.71774

>  <SCORE.INTRA.DIHEDRAL>
-9.21754

>  <SCORE.INTRA.DIHEDRAL.0>
23.4151

>  <SCORE.INTRA.POLAR>
0

>  <SCORE.INTRA.POLAR.0>
0

>  <SCORE.INTRA.REPUL>
0

>  <SCORE.INTRA.REPUL.0>
0

>  <SCORE.INTRA.SOLV>
0.11533

>  <SCORE.INTRA.SOLV.lig_0>
-17.3568

>  <SCORE.INTRA.VDW>
-2.16663

>  <SCORE.INTRA.VDW.0>
1.0768

>  <SCORE.INTRA.norm>
-0.292075

>  <SCORE.RESTR>
0.544131

>  <SCORE.RESTR.CAVITY>
0.544131

>  <SCORE.RESTR.norm>
0.0236579

>  <SCORE.SYSTEM>
0

>  <SCORE.SYSTEM.CONST>
0

>  <SCORE.SYSTEM.DIHEDRAL>
0

>  <SCORE.SYSTEM.SOLV>
0

>  <SCORE.SYSTEM.norm>
0

>  <SCORE.heavy>
23

>  <SCORE.norm>
-0.557083

>  <RMSD>
1.708

$$$$
1uui_lig
 OpenBabel11021811413D
libRbt.so/2013.1/901 2013/11/27
 23 24  0  0  0  0  0  0  0  0999 V2000
  -11.5873    0.4765    2.7473 C   0  0  0  0  0  0  0  0  0  0  0  0
   -9.0734   -0.4595    1.6268 O   0  0  0  0  0  0  0  0  0  0  0  0
  -13.1605    1.1763   -1.9958 O   0  0  0  0  0  0  0  0  0  0  0  0
   -7.9551    0.4330    1.5447 C   0  0  0  0  0  0  0  0  0  0  0  0
  -12.6435    2.1702   -2.8841 C   0  0  0  0  0  0  0  0  0  0  0  0
  -12.9397   -0.0823    3.0764 N   0  0  0  0  0  0  0  0  0  0  0  0
   -6.6917   -0.3066    1.9874 C   0  0  0  0  0  0  0  0  0  0  0  0
  -13.9612    0.9960    3.1683 C   0  0  0  0  0  0  0  0  0  0  0  0
  -12.9041   -0.8418    4.3540 C   0  0  0  0  0  0  0  0  0  0  0  0
   -6.3194   -1.3730    0.9525 C   0  0  0  0  0  0  0  0  0  0  0  0
  -13.6263    2.0127    4.2729 C   0  0  0  0  0  0  0  0  0  0  0  0
  -12.4605    0.0459    5.5294 C   0  0  0  0  0  0  0  0  0  0  0  0
   -7.1175   -2.5957    1.1941 N   0  0  0  0  0  0  0  0  0  0  0  0
  -12.5750    1.5025    5.2078 N   0  0  0  0  0  0  0  0  0  0  0  0
  -11.8521    2.4267    5.9848 C   0  0  0  0  0  0  0  0  0  0  0  0
  -12.0393    2.5010    7.3333 N   0  0  0  0  0  0  0  0  0  0  0  0
  -11.0502    3.3573    5.3926 N   0  0  0  0  0  0  0  0  0  0  0  0
  -10.0990   -0.0449    0.7199 C   0  0  0  0  0  0  0  0  0  0  0  0
  -11.3456    0.4198    1.2210 C   0  0  0  0  0  0  0  0  0  0  0  0
  -12.3642    0.8268    0.3151 C   0  0  0  0  0  0  0  0  0  0  0  0
  -12.1345    0.7684   -1.0864 C   0  0  0  0  0  0  0  0  0  0  0  0
  -10.8882    0.3052   -1.5837 C   0  0  0  0  0  0  0  0  0  0  0  0
   -9.8713   -0.1023   -0.6805 C   0  0  0  0  0  0  0  0  0  0  0  0
  2  4  1  0  0  0  0
  3  5  1  0  0  0  0
  4  7  1  0  0  0  0
  6  1  1  0  0  0  0
  7 10  1  0  0  0  0
  8  6  1  0  0  0  0
  8 11  1  0  0  0  0
  9  6  1  0  0  0  0
 10 13  1  0  0  0  0
 11 14  1  0  0  0  0
 12  9  1  0  0  0  0
 14 12  1  0  0  0  0
 14 15  1  0  0  0  0
 15 16  1  0  0  0  0
 15 17  1  0  0  0  0
 18  2  1  0  0  0  0
 18 23  2  0  0  0  0
 19  1  1  0  0  0  0
 19 18  1  0  0  0  0
 20 19  2  0  0  0  0
 21  3  1  0  0  0  0
 21 20  1  0  0  0  0
 22 21  2  0  0  0  0
 22 23  1  0  0  0  0
M  END
>  <CHROM.1>
-154.88819988,69.10290345,-94.60224914,-82.68747476,-53.05391101,109.90965076
-173.58964536,25.94998615,-113.89908718,-134.91653636,125.63346514,-11.04926565
0.58920307,2.15488818,2.05738956,-0.40311342,1.46735238

>  <Name>
1uui_lig

>  <RI>
0

>  <Rbt.Current_Directory>
/home/itssahil/PROJECTS/Mol_Feturizer/New_Systems/rnas/1uui

>  <Rbt.Executable>
rbdock ($Id: //depot/dev/client3/rdock/2013.1/src/exe/rbdock.cxx#4 $)

>  <Rbt.Library>
libRbt.so (2013.1, Build901 2013/11/27)

>  <Rbt.Parameter_File>
/export/apps/rDock/src/rDock_2013.1_src/data/scripts/dock_solv.prm

>  <Rbt.Receptor>
prm/pocket_docking_3.prm

>  <SCORE>
-22.5178

>  <SCORE.INTER>
-17.9353

>  <SCORE.INTER.CONST>
1

>  <SCORE.INTER.POLAR>
-1.86504

>  <SCORE.INTER.ROT>
10

>  <SCORE.INTER.SOLV>
6.63963

>  <SCORE.INTER.VDW>
-18.2199

>  <SCORE.INTER.norm>
-0.779797

>  <SCORE.INTRA>
-4.58684

>  <SCORE.INTRA.DIHEDRAL>
-4.71881

>  <SCORE.INTRA.DIHEDRAL.0>
23.4151

>  <SCORE.INTRA.POLAR>
-0.291794

>  <SCORE.INTRA.POLAR.0>
0

>  <SCORE.INTRA.REPUL>
0

>  <SCORE.INTRA.REPUL.0>
0

>  <SCORE.INTRA.SOLV>
0.445483

>  <SCORE.INTRA.SOLV.lig_0>
-17.3568

>  <SCORE.INTRA.VDW>
-1.45808

>  <SCORE.INTRA.VDW.0>
1.0768

>  <SCORE.INTRA.norm>
-0.199428

>  <SCORE.RESTR>
0.00434281

>  <SCORE.RESTR.CAVITY>
0.00434281

>  <SCORE.RESTR.norm>
0.000188818

>  <SCORE.SYSTEM>
0

>  <SCORE.SYSTEM.CONST>
0

>  <SCORE.SYSTEM.DIHEDRAL>
0

>  <SCORE.SYSTEM.SOLV>
0

>  <SCORE.SYSTEM.norm>
0

>  <SCORE.heavy>
23

>  <SCORE.norm>
-0.979036

>  <RMSD>
1.715

$$$$
1uui_lig
 OpenBabel11021811413D
libRbt.so/2013.1/901 2013/11/27
 23 24  0  0  0  0  0  0  0  0999 V2000
  -12.2106    0.4041    3.1016 C   0  0  0  0  0  0  0  0  0  0  0  0
   -9.5771    0.1295    1.9014 O   0  0  0  0  0  0  0  0  0  0  0  0
  -13.8873    1.7327   -1.4685 O   0  0  0  0  0  0  0  0  0  0  0  0
   -8.8289   -0.9172    1.2700 C   0  0  0  0  0  0  0  0  0  0  0  0
  -14.6118    0.5765   -1.8954 C   0  0  0  0  0  0  0  0  0  0  0  0
  -13.6818    0.2957    3.3724 N   0  0  0  0  0  0  0  0  0  0  0  0
   -7.4199   -0.9526    1.8637 C   0  0  0  0  0  0  0  0  0  0  0  0
  -14.1766    1.4694    4.1420 C   0  0  0  0  0  0  0  0  0  0  0  0
  -13.9944   -0.9527    4.1169 C   0  0  0  0  0  0  0  0  0  0  0  0
   -6.7830   -2.3243    1.6194 C   0  0  0  0  0  0  0  0  0  0  0  0
  -13.4866    1.5917    5.5112 C   0  0  0  0  0  0  0  0  0  0  0  0
  -13.2597   -1.0070    5.4672 C   0  0  0  0  0  0  0  0  0  0  0  0
   -6.6236   -2.5426    0.1642 N   0  0  0  0  0  0  0  0  0  0  0  0
  -12.7610    0.3388    5.8900 N   0  0  0  0  0  0  0  0  0  0  0  0
  -11.7456    0.4104    6.8617 C   0  0  0  0  0  0  0  0  0  0  0  0
  -11.4685    1.5856    7.4951 N   0  0  0  0  0  0  0  0  0  0  0  0
  -10.9285   -0.6562    7.0946 N   0  0  0  0  0  0  0  0  0  0  0  0
  -10.6593    0.5354    1.0586 C   0  0  0  0  0  0  0  0  0  0  0  0
  -11.9655    0.6825    1.6004 C   0  0  0  0  0  0  0  0  0  0  0  0
  -13.0396    1.0820    0.7574 C   0  0  0  0  0  0  0  0  0  0  0  0
  -12.8058    1.3329   -0.6220 C   0  0  0  0  0  0  0  0  0  0  0  0
  -11.5001    1.1863   -1.1597 C   0  0  0  0  0  0  0  0  0  0  0  0
  -10.4277    0.7866   -0.3196 C   0  0  0  0  0  0  0  0  0  0  0  0
  2  4  1  0  0  0  0
  3  5  1  0  0  0  0
  4  7  1  0  0  0  0
  6  1  1  0  0  0  0
  7 10  1  0  0  0  0
  8  6  1  0  0  0  0
  8 11  1  0  0  0  0
  9  6  1  0  0  0  0
 10 13  1  0  0  0  0
 11 14  1  0  0  0  0
 12  9  1  0  0  0  0
 14 12  1  0  0  0  0
 14 15  1  0  0  0  0
 15 16  1  0  0  0  0
 15 17  1  0  0  0  0
 18  2  1  0  0  0  0
 18 23  2  0  0  0  0
 19  1  1  0  0  0  0
 19 18  1  0  0  0  0
 20 19  2  0  0  0  0
 21  3  1  0  0  0  0
 21 20  1  0  0  0  0
 22 21  2  0  0  0  0
 22 23  1  0  0  0  0
M  END
>  <CHROM.1>
157.50312862,159.06564392,-109.21854127,63.65513021,-64.32514176,3.11305572
53.96580140,-7.10151889,132.70039744,-166.29285975,-82.75899500,-11.51901179
0.17564196,2.55409069,1.97347638,-0.38748051,1.62413691

>  <Name>
1uui_lig

>  <RI>
0

>  <Rbt.Current_Directory>
/home/itssahil/PROJECTS/Mol_Feturizer/New_Systems/rnas/1uui

>  <Rbt.Executable>
rbdock ($Id: //depot/dev/client3/rdock/2013.1/src/exe/rbdock.cxx#4 $)

>  <Rbt.Library>
libRbt.so (2013.1, Build901 2013/11/27)

>  <Rbt.Parameter_File>
/export/apps/rDock/src/rDock_2013.1_src/data/scripts/dock_solv.prm

>  <Rbt.Receptor>
prm/pocket_docking_4.prm

>  <SCORE>
-29.6031

>  <SCORE.INTER>
-29.364

>  <SCORE.INTER.CONST>
1

>  <SCORE.INTER.POLAR>
-3.53374

>  <SCORE.INTER.ROT>
10

>  <SCORE.INTER.SOLV>
10.0081

>  <SCORE.INTER.VDW>
-21.3996

>  <SCORE.INTER.norm>
-1.27669

>  <SCORE.INTRA>
-0.23913

>  <SCORE.INTRA.DIHEDRAL>
-4.65553

>  <SCORE.INTRA.DIHEDRAL.0>
23.4151

>  <SCORE.INTRA.POLAR>
0

>  <SCORE.INTRA.POLAR.0>
0

>  <SCORE.INTRA.REPUL>
0

>  <SCORE.INTRA.REPUL.0>
0

>  <SCORE.INTRA.SOLV>
0.0390572

>  <SCORE.INTRA.SOLV.lig_0>
-17.3568

>  <SCORE.INTRA.VDW>
2.06911

>  <SCORE.INTRA.VDW.0>
1.0768

>  <SCORE.INTRA.norm>
-0.0103969

>  <SCORE.RESTR>
0

>  <SCORE.RESTR.CAVITY>
0

>  <SCORE.RESTR.norm>
0

>  <SCORE.SYSTEM>
0

>  <SCORE.SYSTEM.CONST>
0

>  <SCORE.SYSTEM.DIHEDRAL>
0

>  <SCORE.SYSTEM.SOLV>
0

>  <SCORE.SYSTEM.norm>
0

>  <SCORE.heavy>
23

>  <SCORE.norm>
-1.28709

>  <RMSD>
1.838

$$$$
1uui_lig
 OpenBabel11021811413D
libRbt.so/2013.1/901 2013/11/27
 23 24  0  0  0  0  0  0  0  0999 V2000
  -12.1817    0.5114    3.2245 C   0  0  0  0  0  0  0  0  0  0  0  0
   -9.8502   -0.1679    1.6264 O   0  0  0  0  0  0  0  0  0  0  0  0
  -13.4220    3.7792   -0.4148 O   0  0  0  0  0  0  0  0  0  0  0  0
   -8.5177    0.3565    1.6847 C   0  0  0  0  0  0  0  0  0  0  0  0
  -12.9158    5.0831   -0.1188 C   0  0  0  0  0  0  0  0  0  0  0  0
  -13.6598    0.4390    3.4683 N   0  0  0  0  0  0  0  0  0  0  0  0
   -7.5383   -0.7930    1.9265 C   0  0  0  0  0  0  0  0  0  0  0  0
  -14.1358    1.6125    4.2500 C   0  0  0  0  0  0  0  0  0  0  0  0
  -14.0192   -0.8130    4.1851 C   0  0  0  0  0  0  0  0  0  0  0  0
   -7.7377   -1.8824    0.8679 C   0  0  0  0  0  0  0  0  0  0  0  0
  -13.4667    1.6920    5.6328 C   0  0  0  0  0  0  0  0  0  0  0  0
  -13.3100   -0.9108    5.5466 C   0  0  0  0  0  0  0  0  0  0  0  0
   -7.3562   -1.3550   -0.4613 N   0  0  0  0  0  0  0  0  0  0  0  0
  -12.7824    0.4132    6.0015 N   0  0  0  0  0  0  0  0  0  0  0  0
  -11.7825    0.4401    6.9915 C   0  0  0  0  0  0  0  0  0  0  0  0
  -11.5143    1.5857    7.6805 N   0  0  0  0  0  0  0  0  0  0  0  0
  -10.9705   -0.6372    7.1901 N   0  0  0  0  0  0  0  0  0  0  0  0
  -10.7458    0.8250    1.1181 C   0  0  0  0  0  0  0  0  0  0  0  0
  -11.8999    1.1898    1.8638 C   0  0  0  0  0  0  0  0  0  0  0  0
  -12.7901    2.1744    1.3521 C   0  0  0  0  0  0  0  0  0  0  0  0
  -12.5249    2.7906    0.0990 C   0  0  0  0  0  0  0  0  0  0  0  0
  -11.3709    2.4252   -0.6427 C   0  0  0  0  0  0  0  0  0  0  0  0
  -10.4824    1.4418   -0.1336 C   0  0  0  0  0  0  0  0  0  0  0  0
  2  4  1  0  0  0  0
  3  5  1  0  0  0  0
  4  7  1  0  0  0  0
  6  1  1  0  0  0  0
  7 10  1  0  0  0  0
  8  6  1  0  0  0  0
  8 11  1  0  0  0  0
  9  6  1  0  0  0  0
 10 13  1  0  0  0  0
 11 14  1  0  0  0  0
 12  9  1  0  0  0  0
 14 12  1  0  0  0  0
 14 15  1  0  0  0  0
 15 16  1  0  0  0  0
 15 17  1  0  0  0  0
 18  2  1  0  0  0  0
 18 23  2  0  0  0  0
 19  1  1  0  0  0  0
 19 18  1  0  0  0  0
 20 19  2  0  0  0  0
 21  3  1  0  0  0  0
 21 20  1  0  0  0  0
 22 21  2  0  0  0  0
 22 23  1  0  0  0  0
M  END
>  <CHROM.1>
-167.49294061,54.08257274,-93.27285015,66.10603876,178.45354535,5.24575049
-131.28929136,-9.46857215,-125.13699279,-149.49061521,97.89864297,-11.48432843
0.85427981,2.77042141,2.08514352,-0.60426387,1.97127796

>  <Name>
1uui_lig

>  <RI>
0

>  <Rbt.Current_Directory>
/home/itssahil/PROJECTS/Mol_Feturizer/New_Systems/rnas/1uui

>  <Rbt.Executable>
rbdock ($Id: //depot/dev/client3/rdock/2013.1/src/exe/rbdock.cxx#4 $)

>  <Rbt.Library>
libRbt.so (2013.1, Build901 2013/11/27)

>  <Rbt.Parameter_File>
/export/apps/rDock/src/rDock_2013.1_src/data/scripts/dock_solv.prm

>  <Rbt.Receptor>
prm/pocket_docking_3.prm

>  <SCORE>
-28.0268

>  <SCORE.INTER>
-24.272

>  <SCORE.INTER.CONST>
1

>  <SCORE.INTER.POLAR>
-2.87662

>  <SCORE.INTER.ROT>
10

>  <SCORE.INTER.SOLV>
9.65189

>  <SCORE.INTER.VDW>
-20.0766

>  <SCORE.INTER.norm>
-1.05531

>  <SCORE.INTRA>
-3.75477

>  <SCORE.INTRA.DIHEDRAL>
-8.00858

>  <SCORE.INTRA.DIHEDRAL.0>
23.4151

>  <SCORE.INTRA.POLAR>
0

>  <SCORE.INTRA.POLAR.0>
0

>  <SCORE.INTRA.REPUL>
0

>  <SCORE.INTRA.REPUL.0>
0

>  <SCORE.INTRA.SOLV>
0.337861

>  <SCORE.INTRA.SOLV.lig_0>
-17.3568

>  <SCORE.INTRA.VDW>
0.0805917

>  <SCORE.INTRA.VDW.0>
1.0768

>  <SCORE.INTRA.norm>
-0.163251

>  <SCORE.RESTR>
0

>  <SCORE.RESTR.CAVITY>
0

>  <SCORE.RESTR.norm>
0

>  <SCORE.SYSTEM>
0

>  <SCORE.SYSTEM.CONST>
0

>  <SCORE.SYSTEM.DIHEDRAL>
0

>  <SCORE.SYSTEM.SOLV>
0

>  <SCORE.SYSTEM.norm>
0

>  <SCORE.heavy>
23

>  <SCORE.norm>
-1.21856

>  <RMSD>
1.841

$$$$
1uui_lig
 OpenBabel11021811413D
libRbt.so/2013.1/901 2013/11/27
 23 24  0  0  0  0  0  0  0  0999 V2000
  -11.8132    0.7733    1.7764 C   0  0  0  0  0  0  0  0  0  0  0  0
   -9.0705    0.6394    0.8219 O   0  0  0  0  0  0  0  0  0  0  0  0
  -12.9775    2.9679   -2.6156 O   0  0  0  0  0  0  0  0  0  0  0  0
   -8.2449   -0.2655    0.0779 C   0  0  0  0  0  0  0  0  0  0  0  0
  -12.8881    4.3932   -2.5472 C   0  0  0  0  0  0  0  0  0  0  0  0
  -12.3339   -0.6278    1.6530 N   0  0  0  0  0  0  0  0  0  0  0  0
   -6.9288   -0.4737    0.8288 C   0  0  0  0  0  0  0  0  0  0  0  0
  -13.7810   -0.6369    1.3056 C   0  0  0  0  0  0  0  0  0  0  0  0
  -12.1220   -1.3862    2.9141 C   0  0  0  0  0  0  0  0  0  0  0  0
   -7.1435   -1.4293    2.0068 C   0  0  0  0  0  0  0  0  0  0  0  0
  -14.6350    0.0551    2.3815 C   0  0  0  0  0  0  0  0  0  0  0  0
  -12.8347   -0.7199    4.1033 C   0  0  0  0  0  0  0  0  0  0  0  0
   -5.9374   -1.4345    2.8647 N   0  0  0  0  0  0  0  0  0  0  0  0
  -13.8798    0.2537    3.6582 N   0  0  0  0  0  0  0  0  0  0  0  0
  -14.3325    1.2256    4.5698 C   0  0  0  0  0  0  0  0  0  0  0  0
  -14.6638    0.8826    5.8471 N   0  0  0  0  0  0  0  0  0  0  0  0
  -14.5778    2.5030    4.1606 N   0  0  0  0  0  0  0  0  0  0  0  0
  -10.0518    1.2267   -0.0373 C   0  0  0  0  0  0  0  0  0  0  0  0
  -11.4063    1.3137    0.3859 C   0  0  0  0  0  0  0  0  0  0  0  0
  -12.3795    1.8945   -0.4739 C   0  0  0  0  0  0  0  0  0  0  0  0
  -11.9972    2.3859   -1.7517 C   0  0  0  0  0  0  0  0  0  0  0  0
  -10.6437    2.2988   -2.1708 C   0  0  0  0  0  0  0  0  0  0  0  0
   -9.6717    1.7183   -1.3141 C   0  0  0  0  0  0  0  0  0  0  0  0
  2  4  1  0  0  0  0
  3  5  1  0  0  0  0
  4  7  1  0  0  0  0
  6  1  1  0  0  0  0
  7 10  1  0  0  0  0
  8  6  1  0  0  0  0
  8 11  1  0  0  0  0
  9  6  1  0  0  0  0
 10 13  1  0  0  0  0
 11 14  1  0  0  0  0
 12  9  1  0  0  0  0
 14 12  1  0  0  0  0
 14 15  1  0  0  0  0
 15 16  1  0  0  0  0
 15 17  1  0  0  0  0
 18  2  1  0  0  0  0
 18 23  2  0  0  0  0
 19  1  1  0  0  0  0
 19 18  1  0  0  0  0
 20 19  2  0  0  0  0
 21  3  1  0  0  0  0
 21 20  1  0  0  0  0
 22 21  2  0  0  0  0
 22 23  1  0  0  0  0
M  END
>  <CHROM.1>
159.03771548,77.13434004,-84.98360977,-169.90055037,-50.29718230,121.79821262
158.10189834,163.33624298,134.53474250,-95.51264212,100.70712963,-11.48022643
0.74582503,1.30810632,-2.70174196,0.34028756,-1.08602626

>  <Name>
1uui_lig

>  <RI>
0

>  <Rbt.Current_Directory>
/home/itssahil/PROJECTS/Mol_Feturizer/New_Systems/rnas/1uui

>  <Rbt.Executable>
rbdock ($Id: //depot/dev/client3/rdock/2013.1/src/exe/rbdock.cxx#4 $)

>  <Rbt.Library>
libRbt.so (2013.1, Build901 2013/11/27)

>  <Rbt.Parameter_File>
/export/apps/rDock/src/rDock_2013.1_src/data/scripts/dock_solv.prm

>  <Rbt.Receptor>
prm/pocket_docking_2.prm

>  <SCORE>
-14.5789

>  <SCORE.INTER>
-9.9855

>  <SCORE.INTER.CONST>
1

>  <SCORE.INTER.POLAR>
-1.89007

>  <SCORE.INTER.ROT>
10

>  <SCORE.INTER.SOLV>
5.00038

>  <SCORE.INTER.VDW>
-12.2902

>  <SCORE.INTER.norm>
-0.434152

>  <SCORE.INTRA>
-5.29062

>  <SCORE.INTRA.DIHEDRAL>
-7.04364

>  <SCORE.INTRA.DIHEDRAL.0>
23.4151

>  <SCORE.INTRA.POLAR>
0

>  <SCORE.INTRA.POLAR.0>
0

>  <SCORE.INTRA.REPUL>
0

>  <SCORE.INTRA.REPUL.0>
0

>  <SCORE.INTRA.SOLV>
0.0700057

>  <SCORE.INTRA.SOLV.lig_0>
-17.3568

>  <SCORE.INTRA.VDW>
-1.8038

>  <SCORE.INTRA.VDW.0>
1.0768

>  <SCORE.INTRA.norm>
-0.230027

>  <SCORE.RESTR>
0.697197

>  <SCORE.RESTR.CAVITY>
0.697197

>  <SCORE.RESTR.norm>
0.0303129

>  <SCORE.SYSTEM>
0

>  <SCORE.SYSTEM.CONST>
0

>  <SCORE.SYSTEM.DIHEDRAL>
0

>  <SCORE.SYSTEM.SOLV>
0

>  <SCORE.SYSTEM.norm>
0

>  <SCORE.heavy>
23

>  <SCORE.norm>
-0.633866

>  <RMSD>
1.880

$$$$
1uui_lig
 OpenBabel11021811413D
libRbt.so/2013.1/901 2013/11/27
 23 24  0  0  0  0  0  0  0  0999 V2000
  -11.9687    1.8380    2.3894 C   0  0  0  0  0  0  0  0  0  0  0  0
  -10.0417   -0.1036    1.4054 O   0  0  0  0  0  0  0  0  0  0  0  0
  -14.0087    1.7893   -2.2256 O   0  0  0  0  0  0  0  0  0  0  0  0
   -8.7867   -0.2508    0.7292 C   0  0  0  0  0  0  0  0  0  0  0  0
  -13.6689    3.1073   -2.6630 C   0  0  0  0  0  0  0  0  0  0  0  0
  -13.1993    2.6452    2.6786 N   0  0  0  0  0  0  0  0  0  0  0  0
   -7.8629   -1.1280    1.5755 C   0  0  0  0  0  0  0  0  0  0  0  0
  -12.9719    3.5907    3.8050 C   0  0  0  0  0  0  0  0  0  0  0  0
  -14.3513    1.7613    2.9980 C   0  0  0  0  0  0  0  0  0  0  0  0
   -6.5702   -1.4209    0.8072 C   0  0  0  0  0  0  0  0  0  0  0  0
  -12.6126    2.8569    5.1082 C   0  0  0  0  0  0  0  0  0  0  0  0
  -14.0658    0.8784    4.2248 C   0  0  0  0  0  0  0  0  0  0  0  0
   -5.9226   -2.6262    1.3713 N   0  0  0  0  0  0  0  0  0  0  0  0
  -12.9166    1.3935    5.0325 N   0  0  0  0  0  0  0  0  0  0  0  0
  -12.2727    0.5198    5.9284 C   0  0  0  0  0  0  0  0  0  0  0  0
  -12.3165   -0.8297    5.7389 N   0  0  0  0  0  0  0  0  0  0  0  0
  -11.7068    0.9921    7.0756 N   0  0  0  0  0  0  0  0  0  0  0  0
  -11.0356    0.3756    0.4951 C   0  0  0  0  0  0  0  0  0  0  0  0
  -11.9998    1.3253    0.9309 C   0  0  0  0  0  0  0  0  0  0  0  0
  -12.9891    1.7956    0.0232 C   0  0  0  0  0  0  0  0  0  0  0  0
  -13.0121    1.3166   -1.3148 C   0  0  0  0  0  0  0  0  0  0  0  0
  -12.0473    0.3693   -1.7473 C   0  0  0  0  0  0  0  0  0  0  0  0
  -11.0601   -0.1016   -0.8421 C   0  0  0  0  0  0  0  0  0  0  0  0
  2  4  1  0  0  0  0
  3  5  1  0  0  0  0
  4  7  1  0  0  0  0
  6  1  1  0  0  0  0
  7 10  1  0  0  0  0
  8  6  1  0  0  0  0
  8 11  1  0  0  0  0
  9  6  1  0  0  0  0
 10 13  1  0  0  0  0
 11 14  1  0  0  0  0
 12  9  1  0  0  0  0
 14 12  1  0  0  0  0
 14 15  1  0  0  0  0
 15 16  1  0  0  0  0
 15 17  1  0  0  0  0
 18  2  1  0  0  0  0
 18 23  2  0  0  0  0
 19  1  1  0  0  0  0
 19 18  1  0  0  0  0
 20 19  2  0  0  0  0
 21  3  1  0  0  0  0
 21 20  1  0  0  0  0
 22 21  2  0  0  0  0
 22 23  1  0  0  0  0
M  END
>  <CHROM.1>
-163.66001676,174.08280062,-156.58137356,-159.21500821,89.04407020,-167.43824393
-40.59386115,-42.68603840,-141.39037194,-170.68158819,76.31615628,-11.57871543
0.84107235,1.95135970,2.29697863,-0.54982294,1.61277899

>  <Name>
1uui_lig

>  <RI>
0

>  <Rbt.Current_Directory>
/home/itssahil/PROJECTS/Mol_Feturizer/New_Systems/rnas/1uui

>  <Rbt.Executable>
rbdock ($Id: //depot/dev/client3/rdock/2013.1/src/exe/rbdock.cxx#4 $)

>  <Rbt.Library>
libRbt.so (2013.1, Build901 2013/11/27)

>  <Rbt.Parameter_File>
/export/apps/rDock/src/rDock_2013.1_src/data/scripts/dock_solv.prm

>  <Rbt.Receptor>
prm/pocket_docking_3.prm

>  <SCORE>
-23.8414

>  <SCORE.INTER>
-22.0139

>  <SCORE.INTER.CONST>
1

>  <SCORE.INTER.POLAR>
-3.02456

>  <SCORE.INTER.ROT>
10

>  <SCORE.INTER.SOLV>
7.04626

>  <SCORE.INTER.VDW>
-17.2095

>  <SCORE.INTER.norm>
-0.957128

>  <SCORE.INTRA>
-1.8275

>  <SCORE.INTRA.DIHEDRAL>
-6.93108

>  <SCORE.INTRA.DIHEDRAL.0>
23.4151

>  <SCORE.INTRA.POLAR>
0

>  <SCORE.INTRA.POLAR.0>
0

>  <SCORE.INTRA.REPUL>
0

>  <SCORE.INTRA.REPUL.0>
0

>  <SCORE.INTRA.SOLV>
-0.0946446

>  <SCORE.INTRA.SOLV.lig_0>
-17.3568

>  <SCORE.INTRA.VDW>
1.68536

>  <SCORE.INTRA.VDW.0>
1.0768

>  <SCORE.INTRA.norm>
-0.0794564

>  <SCORE.RESTR>
0

>  <SCORE.RESTR.CAVITY>
0

>  <SCORE.RESTR.norm>
0

>  <SCORE.SYSTEM>
0

>  <SCORE.SYSTEM.CONST>
0

>  <SCORE.SYSTEM.DIHEDRAL>
0

>  <SCORE.SYSTEM.SOLV>
0

>  <SCORE.SYSTEM.norm>
0

>  <SCORE.heavy>
23

>  <SCORE.norm>
-1.03658

>  <RMSD>
1.888

$$$$
1uui_lig
 OpenBabel11021811413D
libRbt.so/2013.1/901 2013/11/27
 23 24  0  0  0  0  0  0  0  0999 V2000
  -10.9492    0.5755    1.7756 C   0  0  0  0  0  0  0  0  0  0  0  0
   -8.5227   -0.6745    0.7749 O   0  0  0  0  0  0  0  0  0  0  0  0
  -11.0393    3.2575   -2.4976 O   0  0  0  0  0  0  0  0  0  0  0  0
   -7.4228   -0.0943    1.4873 C   0  0  0  0  0  0  0  0  0  0  0  0
  -12.0379    2.6327   -3.3078 C   0  0  0  0  0  0  0  0  0  0  0  0
  -12.0676   -0.4068    1.5919 N   0  0  0  0  0  0  0  0  0  0  0  0
   -6.7381   -1.1795    2.3195 C   0  0  0  0  0  0  0  0  0  0  0  0
  -13.2930    0.2613    1.0753 C   0  0  0  0  0  0  0  0  0  0  0  0
  -12.3816   -1.0993    2.8695 C   0  0  0  0  0  0  0  0  0  0  0  0
   -5.9865   -2.1479    1.4006 C   0  0  0  0  0  0  0  0  0  0  0  0
  -13.8109    1.3397    2.0420 C   0  0  0  0  0  0  0  0  0  0  0  0
  -12.8009   -0.1048    3.9655 C   0  0  0  0  0  0  0  0  0  0  0  0
   -6.9400   -2.7753    0.4585 N   0  0  0  0  0  0  0  0  0  0  0  0
  -13.1909    1.2239    3.3992 N   0  0  0  0  0  0  0  0  0  0  0  0
  -13.2076    2.3446    4.2503 C   0  0  0  0  0  0  0  0  0  0  0  0
  -14.1637    2.4742    5.2136 N   0  0  0  0  0  0  0  0  0  0  0  0
  -12.3534    3.3875    4.0447 N   0  0  0  0  0  0  0  0  0  0  0  0
   -9.1538    0.3151   -0.0428 C   0  0  0  0  0  0  0  0  0  0  0  0
  -10.3429    0.9534    0.4042 C   0  0  0  0  0  0  0  0  0  0  0  0
  -10.9694    1.9338   -0.4145 C   0  0  0  0  0  0  0  0  0  0  0  0
  -10.4070    2.2729   -1.6750 C   0  0  0  0  0  0  0  0  0  0  0  0
   -9.2188    1.6346   -2.1180 C   0  0  0  0  0  0  0  0  0  0  0  0
   -8.5932    0.6553   -1.3023 C   0  0  0  0  0  0  0  0  0  0  0  0
  2  4  1  0  0  0  0
  3  5  1  0  0  0  0
  4  7  1  0  0  0  0
  6  1  1  0  0  0  0
  7 10  1  0  0  0  0
  8  6  1  0  0  0  0
  8 11  1  0  0  0  0
  9  6  1  0  0  0  0
 10 13  1  0  0  0  0
 11 14  1  0  0  0  0
 12  9  1  0  0  0  0
 14 12  1  0  0  0  0
 14 15  1  0  0  0  0
 15 16  1  0  0  0  0
 15 17  1  0  0  0  0
 18  2  1  0  0  0  0
 18 23  2  0  0  0  0
 19  1  1  0  0  0  0
 19 18  1  0  0  0  0
 20 19  2  0  0  0  0
 21  3  1  0  0  0  0
 21 20  1  0  0  0  0
 22 21  2  0  0  0  0
 22 23  1  0  0  0  0
M  END
>  <CHROM.1>
-178.24632200,70.99218020,-75.48272525,-59.61406649,-167.61084025,97.36033628
48.16451114,72.23473361,-99.37777755,-98.48771120,-86.85704670,-10.68926655
0.71278985,1.15758599,-2.80844956,0.56314004,-1.16129950

>  <Name>
1uui_lig

>  <RI>
0

>  <Rbt.Current_Directory>
/home/itssahil/PROJECTS/Mol_Feturizer/New_Systems/rnas/1uui

>  <Rbt.Executable>
rbdock ($Id: //depot/dev/client3/rdock/2013.1/src/exe/rbdock.cxx#4 $)

>  <Rbt.Library>
libRbt.so (2013.1, Build901 2013/11/27)

>  <Rbt.Parameter_File>
/export/apps/rDock/src/rDock_2013.1_src/data/scripts/dock_solv.prm

>  <Rbt.Receptor>
prm/pocket_docking_5.prm

>  <SCORE>
-21.1454

>  <SCORE.INTER>
-13.8836

>  <SCORE.INTER.CONST>
1

>  <SCORE.INTER.POLAR>
-1.94068

>  <SCORE.INTER.ROT>
10

>  <SCORE.INTER.SOLV>
4.90818

>  <SCORE.INTER.VDW>
-14.6895

>  <SCORE.INTER.norm>
-0.603637

>  <SCORE.INTRA>
-7.26172

>  <SCORE.INTRA.DIHEDRAL>
-8.0945

>  <SCORE.INTRA.DIHEDRAL.0>
23.4151

>  <SCORE.INTRA.POLAR>
-0.113475

>  <SCORE.INTRA.POLAR.0>
0

>  <SCORE.INTRA.REPUL>
0

>  <SCORE.INTRA.REPUL.0>
0

>  <SCORE.INTRA.SOLV>
0.615791

>  <SCORE.INTRA.SOLV.lig_0>
-17.3568

>  <SCORE.INTRA.VDW>
-3.13656

>  <SCORE.INTRA.VDW.0>
1.0768

>  <SCORE.INTRA.norm>
-0.315727

>  <SCORE.RESTR>
0

>  <SCORE.RESTR.CAVITY>
0

>  <SCORE.RESTR.norm>
0

>  <SCORE.SYSTEM>
0

>  <SCORE.SYSTEM.CONST>
0

>  <SCORE.SYSTEM.DIHEDRAL>
0

>  <SCORE.SYSTEM.SOLV>
0

>  <SCORE.SYSTEM.norm>
0

>  <SCORE.heavy>
23

>  <SCORE.norm>
-0.919364

>  <RMSD>
1.893

$$$$
1uui_lig
 OpenBabel11021811413D
libRbt.so/2013.1/901 2013/11/27
 23 24  0  0  0  0  0  0  0  0999 V2000
  -11.9654    0.8456    1.7916 C   0  0  0  0  0  0  0  0  0  0  0  0
  -10.1638   -0.4232   -0.1047 O   0  0  0  0  0  0  0  0  0  0  0  0
  -12.8010    4.3638   -1.7277 O   0  0  0  0  0  0  0  0  0  0  0  0
   -8.7642   -0.1770    0.0813 C   0  0  0  0  0  0  0  0  0  0  0  0
  -11.9317    5.4813   -1.5289 C   0  0  0  0  0  0  0  0  0  0  0  0
  -12.4616   -0.5652    1.6778 N   0  0  0  0  0  0  0  0  0  0  0  0
   -8.0502   -1.5081    0.3212 C   0  0  0  0  0  0  0  0  0  0  0  0
  -13.9408   -0.6057    1.5203 C   0  0  0  0  0  0  0  0  0  0  0  0
  -12.0676   -1.3645    2.8679 C   0  0  0  0  0  0  0  0  0  0  0  0
   -6.7112   -1.2647    1.0248 C   0  0  0  0  0  0  0  0  0  0  0  0
  -14.6648    0.0177    2.7258 C   0  0  0  0  0  0  0  0  0  0  0  0
  -12.6359   -0.7667    4.1662 C   0  0  0  0  0  0  0  0  0  0  0  0
   -6.9293   -1.1814    2.4863 N   0  0  0  0  0  0  0  0  0  0  0  0
  -13.7548    0.1905    3.9013 N   0  0  0  0  0  0  0  0  0  0  0  0
  -14.1096    1.1122    4.9038 C   0  0  0  0  0  0  0  0  0  0  0  0
  -14.5644    2.3556    4.5783 N   0  0  0  0  0  0  0  0  0  0  0  0
  -13.8803    0.8330    6.2188 N   0  0  0  0  0  0  0  0  0  0  0  0
  -10.8237    0.7801   -0.5083 C   0  0  0  0  0  0  0  0  0  0  0  0
  -11.7144    1.4361    0.3847 C   0  0  0  0  0  0  0  0  0  0  0  0
  -12.3718    2.6301   -0.0228 C   0  0  0  0  0  0  0  0  0  0  0  0
  -12.1377    3.1642   -1.3190 C   0  0  0  0  0  0  0  0  0  0  0  0
  -11.2466    2.5075   -2.2080 C   0  0  0  0  0  0  0  0  0  0  0  0
  -10.5908    1.3153   -1.8028 C   0  0  0  0  0  0  0  0  0  0  0  0
  2  4  1  0  0  0  0
  3  5  1  0  0  0  0
  4  7  1  0  0  0  0
  6  1  1  0  0  0  0
  7 10  1  0  0  0  0
  8  6  1  0  0  0  0
  8 11  1  0  0  0  0
  9  6  1  0  0  0  0
 10 13  1  0  0  0  0
 11 14  1  0  0  0  0
 12  9  1  0  0  0  0
 14 12  1  0  0  0  0
 14 15  1  0  0  0  0
 15 16  1  0  0  0  0
 15 17  1  0  0  0  0
 18  2  1  0  0  0  0
 18 23  2  0  0  0  0
 19  1  1  0  0  0  0
 19 18  1  0  0  0  0
 20 19  2  0  0  0  0
 21  3  1  0  0  0  0
 21 20  1  0  0  0  0
 22 21  2  0  0  0  0
 22 23  1  0  0  0  0
M  END
>  <CHROM.1>
-172.22920962,-158.90852745,-86.77747596,85.01503511,-163.92599375,-45.10152614
142.32586649,68.52200114,-110.11416636,-56.87726030,97.05870661,-11.64947886
0.81849946,1.35553815,2.39289451,-0.53801838,2.20360353

>  <Name>
1uui_lig

>  <RI>
0

>  <Rbt.Current_Directory>
/home/itssahil/PROJECTS/Mol_Feturizer/New_Systems/rnas/1uui

>  <Rbt.Executable>
rbdock ($Id: //depot/dev/client3/rdock/2013.1/src/exe/rbdock.cxx#4 $)

>  <Rbt.Library>
libRbt.so (2013.1, Build901 2013/11/27)

>  <Rbt.Parameter_File>
/export/apps/rDock/src/rDock_2013.1_src/data/scripts/dock_solv.prm

>  <Rbt.Receptor>
prm/pocket_docking_2.prm

>  <SCORE>
-18.1031

>  <SCORE.INTER>
-11.8841

>  <SCORE.INTER.CONST>
1

>  <SCORE.INTER.POLAR>
-2.16796

>  <SCORE.INTER.ROT>
10

>  <SCORE.INTER.SOLV>
5.923

>  <SCORE.INTER.VDW>
-12.9372

>  <SCORE.INTER.norm>
-0.516698

>  <SCORE.INTRA>
-6.51527

>  <SCORE.INTRA.DIHEDRAL>
-3.98567

>  <SCORE.INTRA.DIHEDRAL.0>
23.4151

>  <SCORE.INTRA.POLAR>
-0.49464

>  <SCORE.INTRA.POLAR.0>
0

>  <SCORE.INTRA.REPUL>
0

>  <SCORE.INTRA.REPUL.0>
0

>  <SCORE.INTRA.SOLV>
0.296057

>  <SCORE.INTRA.SOLV.lig_0>
-17.3568

>  <SCORE.INTRA.VDW>
-2.98869

>  <SCORE.INTRA.VDW.0>
1.0768

>  <SCORE.INTRA.norm>
-0.283273

>  <SCORE.RESTR>
0.296186

>  <SCORE.RESTR.CAVITY>
0.296186

>  <SCORE.RESTR.norm>
0.0128777

>  <SCORE.SYSTEM>
0

>  <SCORE.SYSTEM.CONST>
0

>  <SCORE.SYSTEM.DIHEDRAL>
0

>  <SCORE.SYSTEM.SOLV>
0

>  <SCORE.SYSTEM.norm>
0

>  <SCORE.heavy>
23

>  <SCORE.norm>
-0.787093

>  <RMSD>
1.934

$$$$
1uui_lig
 OpenBabel11021811413D
libRbt.so/2013.1/901 2013/11/27
 23 24  0  0  0  0  0  0  0  0999 V2000
  -12.2877    1.0147    3.2190 C   0  0  0  0  0  0  0  0  0  0  0  0
   -9.5406    0.5702    2.3780 O   0  0  0  0  0  0  0  0  0  0  0  0
  -13.6076    0.4178   -1.6145 O   0  0  0  0  0  0  0  0  0  0  0  0
   -8.2537    0.3964    1.7717 C   0  0  0  0  0  0  0  0  0  0  0  0
  -13.4114    1.4901   -2.5396 C   0  0  0  0  0  0  0  0  0  0  0  0
  -13.7326    0.6910    3.4581 N   0  0  0  0  0  0  0  0  0  0  0  0
   -7.9953   -1.0971    1.5670 C   0  0  0  0  0  0  0  0  0  0  0  0
  -14.3467    1.6442    4.4219 C   0  0  0  0  0  0  0  0  0  0  0  0
  -13.8888   -0.6975    3.9662 C   0  0  0  0  0  0  0  0  0  0  0  0
   -6.8039   -1.2981    0.6251 C   0  0  0  0  0  0  0  0  0  0  0  0
  -13.6545    1.5998    5.7948 C   0  0  0  0  0  0  0  0  0  0  0  0
  -13.1324   -0.9059    5.2893 C   0  0  0  0  0  0  0  0  0  0  0  0
   -7.2587   -1.1814   -0.7785 N   0  0  0  0  0  0  0  0  0  0  0  0
  -12.7847    0.3916    5.9480 N   0  0  0  0  0  0  0  0  0  0  0  0
  -11.7695    0.4060    6.9225 C   0  0  0  0  0  0  0  0  0  0  0  0
  -11.4731    1.5493    7.6036 N   0  0  0  0  0  0  0  0  0  0  0  0
  -10.9712   -0.6832    7.1122 N   0  0  0  0  0  0  0  0  0  0  0  0
  -10.5623    0.5363    1.3774 C   0  0  0  0  0  0  0  0  0  0  0  0
  -11.9204    0.7473    1.7409 C   0  0  0  0  0  0  0  0  0  0  0  0
  -12.9336    0.7081    0.7430 C   0  0  0  0  0  0  0  0  0  0  0  0
  -12.5873    0.4587   -0.6128 C   0  0  0  0  0  0  0  0  0  0  0  0
  -11.2302    0.2496   -0.9728 C   0  0  0  0  0  0  0  0  0  0  0  0
  -10.2183    0.2874    0.0224 C   0  0  0  0  0  0  0  0  0  0  0  0
  2  4  1  0  0  0  0
  3  5  1  0  0  0  0
  4  7  1  0  0  0  0
  6  1  1  0  0  0  0
  7 10  1  0  0  0  0
  8  6  1  0  0  0  0
  8 11  1  0  0  0  0
  9  6  1  0  0  0  0
 10 13  1  0  0  0  0
 11 14  1  0  0  0  0
 12  9  1  0  0  0  0
 14 12  1  0  0  0  0
 14 15  1  0  0  0  0
 15 16  1  0  0  0  0
 15 17  1  0  0  0  0
 18  2  1  0  0  0  0
 18 23  2  0  0  0  0
 19  1  1  0  0  0  0
 19 18  1  0  0  0  0
 20 19  2  0  0  0  0
 21  3  1  0  0  0  0
 21 20  1  0  0  0  0
 22 21  2  0  0  0  0
 22 23  1  0  0  0  0
M  END
>  <CHROM.1>
-83.00568823,166.22287837,-143.46542483,-82.47520487,-63.43260812,-7.89517252
-139.23569521,175.68394179,-177.25073704,-158.49056185,115.55532608,-11.46115641
0.30619623,2.52555780,1.93840538,-0.26048670,1.58132701

>  <Name>
1uui_lig

>  <RI>
0

>  <Rbt.Current_Directory>
/home/itssahil/PROJECTS/Mol_Feturizer/New_Systems/rnas/1uui

>  <Rbt.Executable>
rbdock ($Id: //depot/dev/client3/rdock/2013.1/src/exe/rbdock.cxx#4 $)

>  <Rbt.Library>
libRbt.so (2013.1, Build901 2013/11/27)

>  <Rbt.Parameter_File>
/export/apps/rDock/src/rDock_2013.1_src/data/scripts/dock_solv.prm

>  <Rbt.Receptor>
prm/pocket_docking_3.prm

>  <SCORE>
-25.1184

>  <SCORE.INTER>
-26.7122

>  <SCORE.INTER.CONST>
1

>  <SCORE.INTER.POLAR>
-2.92308

>  <SCORE.INTER.ROT>
10

>  <SCORE.INTER.SOLV>
9.74359

>  <SCORE.INTER.VDW>
-21.579

>  <SCORE.INTER.norm>
-1.1614

>  <SCORE.INTRA>
1.58934

>  <SCORE.INTRA.DIHEDRAL>
-8.12182

>  <SCORE.INTRA.DIHEDRAL.0>
23.4151

>  <SCORE.INTRA.POLAR>
0

>  <SCORE.INTRA.POLAR.0>
0

>  <SCORE.INTRA.REPUL>
0

>  <SCORE.INTRA.REPUL.0>
0

>  <SCORE.INTRA.SOLV>
0.22821

>  <SCORE.INTRA.SOLV.lig_0>
-17.3568

>  <SCORE.INTRA.VDW>
5.53615

>  <SCORE.INTRA.VDW.0>
1.0768

>  <SCORE.INTRA.norm>
0.0691018

>  <SCORE.RESTR>
0.00443778

>  <SCORE.RESTR.CAVITY>
0.00443778

>  <SCORE.RESTR.norm>
0.000192947

>  <SCORE.SYSTEM>
0

>  <SCORE.SYSTEM.CONST>
0

>  <SCORE.SYSTEM.DIHEDRAL>
0

>  <SCORE.SYSTEM.SOLV>
0

>  <SCORE.SYSTEM.norm>
0

>  <SCORE.heavy>
23

>  <SCORE.norm>
-1.09211

>  <RMSD>
1.939

$$$$
1uui_lig
 OpenBabel11021811413D
libRbt.so/2013.1/901 2013/11/27
 23 24  0  0  0  0  0  0  0  0999 V2000
  -12.0162    0.6910    3.1731 C   0  0  0  0  0  0  0  0  0  0  0  0
   -9.4301    0.8025    1.8499 O   0  0  0  0  0  0  0  0  0  0  0  0
  -13.4333    4.5078    0.1922 O   0  0  0  0  0  0  0  0  0  0  0  0
   -9.1687   -0.1349    0.7978 C   0  0  0  0  0  0  0  0  0  0  0  0
  -14.1008    3.9993   -0.9654 C   0  0  0  0  0  0  0  0  0  0  0  0
  -13.4980    0.5302    3.3400 N   0  0  0  0  0  0  0  0  0  0  0  0
   -7.6925   -0.5326    0.8380 C   0  0  0  0  0  0  0  0  0  0  0  0
  -14.0680    1.6205    4.1774 C   0  0  0  0  0  0  0  0  0  0  0  0
  -13.8242   -0.7857    3.9503 C   0  0  0  0  0  0  0  0  0  0  0  0
   -7.3643   -1.1926    2.1811 C   0  0  0  0  0  0  0  0  0  0  0  0
  -13.4661    1.6330    5.5928 C   0  0  0  0  0  0  0  0  0  0  0  0
  -13.1722   -0.9464    5.3342 C   0  0  0  0  0  0  0  0  0  0  0  0
   -5.9996   -1.7631    2.1307 N   0  0  0  0  0  0  0  0  0  0  0  0
  -12.7340    0.3655    5.9046 N   0  0  0  0  0  0  0  0  0  0  0  0
  -11.7819    0.3695    6.9409 C   0  0  0  0  0  0  0  0  0  0  0  0
  -11.5717    1.4891    7.6901 N   0  0  0  0  0  0  0  0  0  0  0  0
  -10.9559   -0.6986    7.1314 N   0  0  0  0  0  0  0  0  0  0  0  0
  -10.4348    1.7337    1.4383 C   0  0  0  0  0  0  0  0  0  0  0  0
  -11.7153    1.7169    2.0559 C   0  0  0  0  0  0  0  0  0  0  0  0
  -12.7128    2.6420    1.6401 C   0  0  0  0  0  0  0  0  0  0  0  0
  -12.4285    3.5796    0.6103 C   0  0  0  0  0  0  0  0  0  0  0  0
  -11.1485    3.5947   -0.0036 C   0  0  0  0  0  0  0  0  0  0  0  0
  -10.1526    2.6712    0.4098 C   0  0  0  0  0  0  0  0  0  0  0  0
  2  4  1  0  0  0  0
  3  5  1  0  0  0  0
  4  7  1  0  0  0  0
  6  1  1  0  0  0  0
  7 10  1  0  0  0  0
  8  6  1  0  0  0  0
  8 11  1  0  0  0  0
  9  6  1  0  0  0  0
 10 13  1  0  0  0  0
 11 14  1  0  0  0  0
 12  9  1  0  0  0  0
 14 12  1  0  0  0  0
 14 15  1  0  0  0  0
 15 16  1  0  0  0  0
 15 17  1  0  0  0  0
 18  2  1  0  0  0  0
 18 23  2  0  0  0  0
 19  1  1  0  0  0  0
 19 18  1  0  0  0  0
 20 19  2  0  0  0  0
 21  3  1  0  0  0  0
 21 20  1  0  0  0  0
 22 21  2  0  0  0  0
 22 23  1  0  0  0  0
M  END
>  <CHROM.1>
146.79319154,60.70719862,-81.48180442,171.13577767,-162.70945043,2.99281028
-131.85535523,164.56414043,111.94813684,-160.59803493,-96.46401470,-11.38550187
1.07742657,2.93781269,1.73645844,-0.49705440,2.03679493

>  <Name>
1uui_lig

>  <RI>
0

>  <Rbt.Current_Directory>
/home/itssahil/PROJECTS/Mol_Feturizer/New_Systems/rnas/1uui

>  <Rbt.Executable>
rbdock ($Id: //depot/dev/client3/rdock/2013.1/src/exe/rbdock.cxx#4 $)

>  <Rbt.Library>
libRbt.so (2013.1, Build901 2013/11/27)

>  <Rbt.Parameter_File>
/export/apps/rDock/src/rDock_2013.1_src/data/scripts/dock_solv.prm

>  <Rbt.Receptor>
prm/pocket_docking_3.prm

>  <SCORE>
-25.2645

>  <SCORE.INTER>
-22.9606

>  <SCORE.INTER.CONST>
1

>  <SCORE.INTER.POLAR>
-2.87544

>  <SCORE.INTER.ROT>
10

>  <SCORE.INTER.SOLV>
9.24452

>  <SCORE.INTER.VDW>
-19.0705

>  <SCORE.INTER.norm>
-0.998289

>  <SCORE.INTRA>
-2.30474

>  <SCORE.INTRA.DIHEDRAL>
-3.98484

>  <SCORE.INTRA.DIHEDRAL.0>
23.4151

>  <SCORE.INTRA.POLAR>
0

>  <SCORE.INTRA.POLAR.0>
0

>  <SCORE.INTRA.REPUL>
0

>  <SCORE.INTRA.REPUL.0>
0

>  <SCORE.INTRA.SOLV>
0.000684965

>  <SCORE.INTRA.SOLV.lig_0>
-17.3568

>  <SCORE.INTRA.VDW>
-0.312663

>  <SCORE.INTRA.VDW.0>
1.0768

>  <SCORE.INTRA.norm>
-0.100206

>  <SCORE.RESTR>
0.00088881

>  <SCORE.RESTR.CAVITY>
0.00088881

>  <SCORE.RESTR.norm>
3.86439e-05

>  <SCORE.SYSTEM>
0

>  <SCORE.SYSTEM.CONST>
0

>  <SCORE.SYSTEM.DIHEDRAL>
0

>  <SCORE.SYSTEM.SOLV>
0

>  <SCORE.SYSTEM.norm>
0

>  <SCORE.heavy>
23

>  <SCORE.norm>
-1.09846

>  <RMSD>
1.943

$$$$
1uui_lig
 OpenBabel11021811413D
libRbt.so/2013.1/901 2013/11/27
 23 24  0  0  0  0  0  0  0  0999 V2000
  -12.4066    0.8143    1.6030 C   0  0  0  0  0  0  0  0  0  0  0  0
  -10.0777   -0.2678    0.2404 O   0  0  0  0  0  0  0  0  0  0  0  0
  -13.0434    3.8265   -2.3949 O   0  0  0  0  0  0  0  0  0  0  0  0
   -8.9527    0.2987    0.9242 C   0  0  0  0  0  0  0  0  0  0  0  0
  -12.4906    5.1042   -2.0696 C   0  0  0  0  0  0  0  0  0  0  0  0
  -12.5496   -0.6786    1.5866 N   0  0  0  0  0  0  0  0  0  0  0  0
   -8.1194   -0.8289    1.5352 C   0  0  0  0  0  0  0  0  0  0  0  0
  -13.9738   -1.0825    1.4338 C   0  0  0  0  0  0  0  0  0  0  0  0
  -11.9945   -1.2791    2.8283 C   0  0  0  0  0  0  0  0  0  0  0  0
   -6.9544   -0.2427    2.3390 C   0  0  0  0  0  0  0  0  0  0  0  0
  -14.8442   -0.5713    2.5944 C   0  0  0  0  0  0  0  0  0  0  0  0
  -12.7092   -0.7493    4.0832 C   0  0  0  0  0  0  0  0  0  0  0  0
   -6.0565   -1.3352    2.7756 N   0  0  0  0  0  0  0  0  0  0  0  0
  -14.0201   -0.1077    3.7544 N   0  0  0  0  0  0  0  0  0  0  0  0
  -14.6002    0.7671    4.6918 C   0  0  0  0  0  0  0  0  0  0  0  0
  -14.3348    2.1040    4.6549 N   0  0  0  0  0  0  0  0  0  0  0  0
  -15.3307    0.2831    5.7366 N   0  0  0  0  0  0  0  0  0  0  0  0
  -10.8211    0.7622   -0.4171 C   0  0  0  0  0  0  0  0  0  0  0  0
  -11.9680    1.3217    0.2097 C   0  0  0  0  0  0  0  0  0  0  0  0
  -12.7068    2.3428   -0.4501 C   0  0  0  0  0  0  0  0  0  0  0  0
  -12.2982    2.8010   -1.7321 C   0  0  0  0  0  0  0  0  0  0  0  0
  -11.1518    2.2413   -2.3549 C   0  0  0  0  0  0  0  0  0  0  0  0
  -10.4143    1.2215   -1.6978 C   0  0  0  0  0  0  0  0  0  0  0  0
  2  4  1  0  0  0  0
  3  5  1  0  0  0  0
  4  7  1  0  0  0  0
  6  1  1  0  0  0  0
  7 10  1  0  0  0  0
  8  6  1  0  0  0  0
  8 11  1  0  0  0  0
  9  6  1  0  0  0  0
 10 13  1  0  0  0  0
 11 14  1  0  0  0  0
 12  9  1  0  0  0  0
 14 12  1  0  0  0  0
 14 15  1  0  0  0  0
 15 16  1  0  0  0  0
 15 17  1  0  0  0  0
 18  2  1  0  0  0  0
 18 23  2  0  0  0  0
 19  1  1  0  0  0  0
 19 18  1  0  0  0  0
 20 19  2  0  0  0  0
 21  3  1  0  0  0  0
 21 20  1  0  0  0  0
 22 21  2  0  0  0  0
 22 23  1  0  0  0  0
M  END
>  <CHROM.1>
-176.02504791,-176.80016992,-99.42728151,-172.62352826,79.70120619,-100.98873761
29.37702010,-48.70502728,-96.77601786,-52.99467683,91.92175314,-11.79780783
0.70710940,1.37411472,2.25338058,-0.31488971,2.12722305

>  <Name>
1uui_lig

>  <RI>
0

>  <Rbt.Current_Directory>
/home/itssahil/PROJECTS/Mol_Feturizer/New_Systems/rnas/1uui

>  <Rbt.Executable>
rbdock ($Id: //depot/dev/client3/rdock/2013.1/src/exe/rbdock.cxx#4 $)

>  <Rbt.Library>
libRbt.so (2013.1, Build901 2013/11/27)

>  <Rbt.Parameter_File>
/export/apps/rDock/src/rDock_2013.1_src/data/scripts/dock_solv.prm

>  <Rbt.Receptor>
prm/pocket_docking_2.prm

>  <SCORE>
-20.9283

>  <SCORE.INTER>
-13.6947

>  <SCORE.INTER.CONST>
1

>  <SCORE.INTER.POLAR>
-2.47676

>  <SCORE.INTER.ROT>
10

>  <SCORE.INTER.SOLV>
5.67054

>  <SCORE.INTER.VDW>
-13.0308

>  <SCORE.INTER.norm>
-0.595422

>  <SCORE.INTRA>
-8.03881

>  <SCORE.INTRA.DIHEDRAL>
-5.74211

>  <SCORE.INTRA.DIHEDRAL.0>
23.4151

>  <SCORE.INTRA.POLAR>
-0.419488

>  <SCORE.INTRA.POLAR.0>
0

>  <SCORE.INTRA.REPUL>
0

>  <SCORE.INTRA.REPUL.0>
0

>  <SCORE.INTRA.SOLV>
0.185469

>  <SCORE.INTRA.SOLV.lig_0>
-17.3568

>  <SCORE.INTRA.VDW>
-3.83423

>  <SCORE.INTRA.VDW.0>
1.0768

>  <SCORE.INTRA.norm>
-0.349513

>  <SCORE.RESTR>
0.805184

>  <SCORE.RESTR.CAVITY>
0.805184

>  <SCORE.RESTR.norm>
0.035008

>  <SCORE.SYSTEM>
0

>  <SCORE.SYSTEM.CONST>
0

>  <SCORE.SYSTEM.DIHEDRAL>
0

>  <SCORE.SYSTEM.SOLV>
0

>  <SCORE.SYSTEM.norm>
0

>  <SCORE.heavy>
23

>  <SCORE.norm>
-0.909928

>  <RMSD>
1.971

$$$$
1uui_lig
 OpenBabel11021811413D
libRbt.so/2013.1/901 2013/11/27
 23 24  0  0  0  0  0  0  0  0999 V2000
  -11.6342    1.4423    2.6178 C   0  0  0  0  0  0  0  0  0  0  0  0
   -9.0934    0.6167    1.4713 O   0  0  0  0  0  0  0  0  0  0  0  0
  -12.7590    3.3960   -1.8966 O   0  0  0  0  0  0  0  0  0  0  0  0
   -8.0403    0.0487    0.6824 C   0  0  0  0  0  0  0  0  0  0  0  0
  -13.1194    2.5595   -2.9986 C   0  0  0  0  0  0  0  0  0  0  0  0
  -12.3845    2.5994    3.2074 N   0  0  0  0  0  0  0  0  0  0  0  0
   -6.7047    0.2804    1.3906 C   0  0  0  0  0  0  0  0  0  0  0  0
  -11.9772    2.8441    4.6177 C   0  0  0  0  0  0  0  0  0  0  0  0
  -13.8518    2.3665    3.1484 C   0  0  0  0  0  0  0  0  0  0  0  0
   -6.5648   -0.6833    2.5732 C   0  0  0  0  0  0  0  0  0  0  0  0
  -12.2646    1.6305    5.5181 C   0  0  0  0  0  0  0  0  0  0  0  0
  -14.2563    1.0983    3.9193 C   0  0  0  0  0  0  0  0  0  0  0  0
   -6.5189   -2.0755    2.0731 N   0  0  0  0  0  0  0  0  0  0  0  0
  -13.1863    0.6497    4.8638 N   0  0  0  0  0  0  0  0  0  0  0  0
  -13.2105   -0.6763    5.3346 C   0  0  0  0  0  0  0  0  0  0  0  0
  -12.3130   -1.1009    6.2690 N   0  0  0  0  0  0  0  0  0  0  0  0
  -14.0411   -1.5998    4.7715 N   0  0  0  0  0  0  0  0  0  0  0  0
  -10.0132    1.3176    0.6292 C   0  0  0  0  0  0  0  0  0  0  0  0
  -11.2685    1.7408    1.1452 C   0  0  0  0  0  0  0  0  0  0  0  0
  -12.1818    2.4335    0.3027 C   0  0  0  0  0  0  0  0  0  0  0  0
  -11.8387    2.7009   -1.0505 C   0  0  0  0  0  0  0  0  0  0  0  0
  -10.5839    2.2782   -1.5624 C   0  0  0  0  0  0  0  0  0  0  0  0
   -9.6721    1.5858   -0.7228 C   0  0  0  0  0  0  0  0  0  0  0  0
  2  4  1  0  0  0  0
  3  5  1  0  0  0  0
  4  7  1  0  0  0  0
  6  1  1  0  0  0  0
  7 10  1  0  0  0  0
  8  6  1  0  0  0  0
  8 11  1  0  0  0  0
  9  6  1  0  0  0  0
 10 13  1  0  0  0  0
 11 14  1  0  0  0  0
 12  9  1  0  0  0  0
 14 12  1  0  0  0  0
 14 15  1  0  0  0  0
 15 16  1  0  0  0  0
 15 17  1  0  0  0  0
 18  2  1  0  0  0  0
 18 23  2  0  0  0  0
 19  1  1  0  0  0  0
 19 18  1  0  0  0  0
 20 19  2  0  0  0  0
 21  3  1  0  0  0  0
 21 20  1  0  0  0  0
 22 21  2  0  0  0  0
 22 23  1  0  0  0  0
M  END
>  <CHROM.1>
136.85888528,75.64283164,-141.12593646,64.17236294,-175.62458825,-7.01240341
76.20193047,-139.52236042,167.80596763,142.12517193,-119.01956349,-11.18135003
1.04492652,2.06334095,2.12092799,-0.38291141,2.00286697

>  <Name>
1uui_lig

>  <RI>
0

>  <Rbt.Current_Directory>
/home/itssahil/PROJECTS/Mol_Feturizer/New_Systems/rnas/1uui

>  <Rbt.Executable>
rbdock ($Id: //depot/dev/client3/rdock/2013.1/src/exe/rbdock.cxx#4 $)

>  <Rbt.Library>
libRbt.so (2013.1, Build901 2013/11/27)

>  <Rbt.Parameter_File>
/export/apps/rDock/src/rDock_2013.1_src/data/scripts/dock_solv.prm

>  <Rbt.Receptor>
prm/pocket_docking_2.prm

>  <SCORE>
-12.7876

>  <SCORE.INTER>
-14.9403

>  <SCORE.INTER.CONST>
1

>  <SCORE.INTER.POLAR>
-2.79504

>  <SCORE.INTER.ROT>
10

>  <SCORE.INTER.SOLV>
7.63043

>  <SCORE.INTER.VDW>
-13.4536

>  <SCORE.INTER.norm>
-0.64958

>  <SCORE.INTRA>
0.880651

>  <SCORE.INTRA.DIHEDRAL>
-5.80902

>  <SCORE.INTRA.DIHEDRAL.0>
23.4151

>  <SCORE.INTRA.POLAR>
0

>  <SCORE.INTRA.POLAR.0>
0

>  <SCORE.INTRA.REPUL>
0

>  <SCORE.INTRA.REPUL.0>
0

>  <SCORE.INTRA.SOLV>
0.187374

>  <SCORE.INTRA.SOLV.lig_0>
-17.3568

>  <SCORE.INTRA.VDW>
3.69147

>  <SCORE.INTRA.VDW.0>
1.0768

>  <SCORE.INTRA.norm>
0.0382892

>  <SCORE.RESTR>
1.27206

>  <SCORE.RESTR.CAVITY>
1.27206

>  <SCORE.RESTR.norm>
0.0553069

>  <SCORE.SYSTEM>
0

>  <SCORE.SYSTEM.CONST>
0

>  <SCORE.SYSTEM.DIHEDRAL>
0

>  <SCORE.SYSTEM.SOLV>
0

>  <SCORE.SYSTEM.norm>
0

>  <SCORE.heavy>
23

>  <SCORE.norm>
-0.555984

>  <RMSD>
1.981

$$$$
1uui_lig
 OpenBabel11021811413D
libRbt.so/2013.1/901 2013/11/27
 23 24  0  0  0  0  0  0  0  0999 V2000
  -12.7120    1.1917    1.4367 C   0  0  0  0  0  0  0  0  0  0  0  0
   -9.8084    1.0998    1.3274 O   0  0  0  0  0  0  0  0  0  0  0  0
  -12.5401    3.9650   -2.7753 O   0  0  0  0  0  0  0  0  0  0  0  0
   -9.0582    0.0227    0.7520 C   0  0  0  0  0  0  0  0  0  0  0  0
  -12.3482    5.3694   -2.5886 C   0  0  0  0  0  0  0  0  0  0  0  0
  -13.7858    0.3273    0.8457 N   0  0  0  0  0  0  0  0  0  0  0  0
   -8.0987   -0.5360    1.8039 C   0  0  0  0  0  0  0  0  0  0  0  0
  -15.1400    0.8565    1.1632 C   0  0  0  0  0  0  0  0  0  0  0  0
  -13.6724   -1.0713    1.3371 C   0  0  0  0  0  0  0  0  0  0  0  0
   -7.1398   -1.5405    1.1570 C   0  0  0  0  0  0  0  0  0  0  0  0
  -15.3988    0.9025    2.6787 C   0  0  0  0  0  0  0  0  0  0  0  0
  -13.7946   -1.1461    2.8686 C   0  0  0  0  0  0  0  0  0  0  0  0
   -6.1170   -1.9530    2.1441 N   0  0  0  0  0  0  0  0  0  0  0  0
  -14.3988    0.0951    3.4453 N   0  0  0  0  0  0  0  0  0  0  0  0
  -14.2158    0.3646    4.8144 C   0  0  0  0  0  0  0  0  0  0  0  0
  -12.9712    0.6016    5.3180 N   0  0  0  0  0  0  0  0  0  0  0  0
  -15.2569    0.2624    5.6892 N   0  0  0  0  0  0  0  0  0  0  0  0
  -10.4958    1.8214    0.3012 C   0  0  0  0  0  0  0  0  0  0  0  0
  -11.9156    1.8935    0.3123 C   0  0  0  0  0  0  0  0  0  0  0  0
  -12.5951    2.6085   -0.7129 C   0  0  0  0  0  0  0  0  0  0  0  0
  -11.8551    3.2481   -1.7443 C   0  0  0  0  0  0  0  0  0  0  0  0
  -10.4374    3.1753   -1.7519 C   0  0  0  0  0  0  0  0  0  0  0  0
   -9.7583    2.4611   -0.7299 C   0  0  0  0  0  0  0  0  0  0  0  0
  2  4  1  0  0  0  0
  3  5  1  0  0  0  0
  4  7  1  0  0  0  0
  6  1  1  0  0  0  0
  7 10  1  0  0  0  0
  8  6  1  0  0  0  0
  8 11  1  0  0  0  0
  9  6  1  0  0  0  0
 10 13  1  0  0  0  0
 11 14  1  0  0  0  0
 12  9  1  0  0  0  0
 14 12  1  0  0  0  0
 14 15  1  0  0  0  0
 15 16  1  0  0  0  0
 15 17  1  0  0  0  0
 18  2  1  0  0  0  0
 18 23  2  0  0  0  0
 19  1  1  0  0  0  0
 19 18  1  0  0  0  0
 20 19  2  0  0  0  0
 21  3  1  0  0  0  0
 21 20  1  0  0  0  0
 22 21  2  0  0  0  0
 22 23  1  0  0  0  0
M  END
>  <CHROM.1>
167.58765222,-171.42327508,-112.69965177,173.35070130,-179.45032484,-127.55868565
48.64655341,179.73208130,118.86118170,-128.91114533,107.85750305,-11.87160595
1.00043716,1.24450200,2.36539539,-0.28494489,2.22013949

>  <Name>
1uui_lig

>  <RI>
0

>  <Rbt.Current_Directory>
/home/itssahil/PROJECTS/Mol_Feturizer/New_Systems/rnas/1uui

>  <Rbt.Executable>
rbdock ($Id: //depot/dev/client3/rdock/2013.1/src/exe/rbdock.cxx#4 $)

>  <Rbt.Library>
libRbt.so (2013.1, Build901 2013/11/27)

>  <Rbt.Parameter_File>
/export/apps/rDock/src/rDock_2013.1_src/data/scripts/dock_solv.prm

>  <Rbt.Receptor>
prm/pocket_docking_3.prm

>  <SCORE>
-16.2432

>  <SCORE.INTER>
-10.918

>  <SCORE.INTER.CONST>
1

>  <SCORE.INTER.POLAR>
-2.1411

>  <SCORE.INTER.ROT>
10

>  <SCORE.INTER.SOLV>
4.44254

>  <SCORE.INTER.VDW>
-11.8892

>  <SCORE.INTER.norm>
-0.474697

>  <SCORE.INTRA>
-5.4143

>  <SCORE.INTRA.DIHEDRAL>
-6.38987

>  <SCORE.INTRA.DIHEDRAL.0>
23.4151

>  <SCORE.INTRA.POLAR>
0

>  <SCORE.INTRA.POLAR.0>
0

>  <SCORE.INTRA.REPUL>
0

>  <SCORE.INTRA.REPUL.0>
0

>  <SCORE.INTRA.SOLV>
-0.101517

>  <SCORE.INTRA.SOLV.lig_0>
-17.3568

>  <SCORE.INTRA.VDW>
-2.16861

>  <SCORE.INTRA.VDW.0>
1.0768

>  <SCORE.INTRA.norm>
-0.235404

>  <SCORE.RESTR>
0.0891532

>  <SCORE.RESTR.CAVITY>
0.0891532

>  <SCORE.RESTR.norm>
0.00387623

>  <SCORE.SYSTEM>
0

>  <SCORE.SYSTEM.CONST>
0

>  <SCORE.SYSTEM.DIHEDRAL>
0

>  <SCORE.SYSTEM.SOLV>
0

>  <SCORE.SYSTEM.norm>
0

>  <SCORE.heavy>
23

>  <SCORE.norm>
-0.706225

>  <RMSD>
2.018

$$$$
1uui_lig
 OpenBabel11021811413D
libRbt.so/2013.1/901 2013/11/27
 23 24  0  0  0  0  0  0  0  0999 V2000
  -11.9408    0.7397    3.1317 C   0  0  0  0  0  0  0  0  0  0  0  0
   -9.3658    0.8208    1.7847 O   0  0  0  0  0  0  0  0  0  0  0  0
  -13.3561    4.5424    0.1319 O   0  0  0  0  0  0  0  0  0  0  0  0
   -8.4825    0.5365    0.6925 C   0  0  0  0  0  0  0  0  0  0  0  0
  -14.1005    3.9886   -0.9558 C   0  0  0  0  0  0  0  0  0  0  0  0
  -13.4198    0.5208    3.2502 N   0  0  0  0  0  0  0  0  0  0  0  0
   -7.3653   -0.3869    1.1806 C   0  0  0  0  0  0  0  0  0  0  0  0
  -14.0534    1.5652    4.1001 C   0  0  0  0  0  0  0  0  0  0  0  0
  -13.7143   -0.8231    3.8139 C   0  0  0  0  0  0  0  0  0  0  0  0
   -7.7264   -1.8465    0.8868 C   0  0  0  0  0  0  0  0  0  0  0  0
  -13.4931    1.5589    5.5325 C   0  0  0  0  0  0  0  0  0  0  0  0
  -13.0966   -0.9997    5.2116 C   0  0  0  0  0  0  0  0  0  0  0  0
   -6.6441   -2.7307    1.3738 N   0  0  0  0  0  0  0  0  0  0  0  0
  -12.7238    0.3103    5.8307 N   0  0  0  0  0  0  0  0  0  0  0  0
  -11.8025    0.3190    6.8945 C   0  0  0  0  0  0  0  0  0  0  0  0
  -11.6219    1.4388    7.6511 N   0  0  0  0  0  0  0  0  0  0  0  0
  -10.9753   -0.7439    7.1076 N   0  0  0  0  0  0  0  0  0  0  0  0
  -10.3673    1.7562    1.3743 C   0  0  0  0  0  0  0  0  0  0  0  0
  -11.6422    1.7541    2.0034 C   0  0  0  0  0  0  0  0  0  0  0  0
  -12.6365    2.6833    1.5888 C   0  0  0  0  0  0  0  0  0  0  0  0
  -12.3545    3.6101    0.5487 C   0  0  0  0  0  0  0  0  0  0  0  0
  -11.0800    3.6106   -0.0766 C   0  0  0  0  0  0  0  0  0  0  0  0
  -10.0873    2.6830    0.3356 C   0  0  0  0  0  0  0  0  0  0  0  0
  2  4  1  0  0  0  0
  3  5  1  0  0  0  0
  4  7  1  0  0  0  0
  6  1  1  0  0  0  0
  7 10  1  0  0  0  0
  8  6  1  0  0  0  0
  8 11  1  0  0  0  0
  9  6  1  0  0  0  0
 10 13  1  0  0  0  0
 11 14  1  0  0  0  0
 12  9  1  0  0  0  0
 14 12  1  0  0  0  0
 14 15  1  0  0  0  0
 15 16  1  0  0  0  0
 15 17  1  0  0  0  0
 18  2  1  0  0  0  0
 18 23  2  0  0  0  0
 19  1  1  0  0  0  0
 19 18  1  0  0  0  0
 20 19  2  0  0  0  0
 21  3  1  0  0  0  0
 21 20  1  0  0  0  0
 22 21  2  0  0  0  0
 22 23  1  0  0  0  0
M  END
>  <CHROM.1>
176.06081438,95.04609672,-84.35425373,-179.51376369,-45.51704150,0.69596696
-118.76467598,166.63910792,151.99273066,-156.74016397,-92.39462316,-11.35794497
1.02446953,2.80244631,2.04023983,-0.58623237,2.07141007

>  <Name>
1uui_lig

>  <RI>
0

>  <Rbt.Current_Directory>
/home/itssahil/PROJECTS/Mol_Feturizer/New_Systems/rnas/1uui

>  <Rbt.Executable>
rbdock ($Id: //depot/dev/client3/rdock/2013.1/src/exe/rbdock.cxx#4 $)

>  <Rbt.Library>
libRbt.so (2013.1, Build901 2013/11/27)

>  <Rbt.Parameter_File>
/export/apps/rDock/src/rDock_2013.1_src/data/scripts/dock_solv.prm

>  <Rbt.Receptor>
prm/pocket_docking_3.prm

>  <SCORE>
-30.5943

>  <SCORE.INTER>
-28.5685

>  <SCORE.INTER.CONST>
1

>  <SCORE.INTER.POLAR>
-3.77595

>  <SCORE.INTER.ROT>
10

>  <SCORE.INTER.SOLV>
9.58097

>  <SCORE.INTER.VDW>
-19.9195

>  <SCORE.INTER.norm>
-1.24211

>  <SCORE.INTRA>
-2.02859

>  <SCORE.INTRA.DIHEDRAL>
-7.87125

>  <SCORE.INTRA.DIHEDRAL.0>
23.4151

>  <SCORE.INTRA.POLAR>
0

>  <SCORE.INTRA.POLAR.0>
0

>  <SCORE.INTRA.REPUL>
0

>  <SCORE.INTRA.REPUL.0>
0

>  <SCORE.INTRA.SOLV>
-0.0369799

>  <SCORE.INTRA.SOLV.lig_0>
-17.3568

>  <SCORE.INTRA.VDW>
1.92553

>  <SCORE.INTRA.VDW.0>
1.0768

>  <SCORE.INTRA.norm>
-0.0881994

>  <SCORE.RESTR>
0.00282257

>  <SCORE.RESTR.CAVITY>
0.00282257

>  <SCORE.RESTR.norm>
0.000122721

>  <SCORE.SYSTEM>
0

>  <SCORE.SYSTEM.CONST>
0

>  <SCORE.SYSTEM.DIHEDRAL>
0

>  <SCORE.SYSTEM.SOLV>
0

>  <SCORE.SYSTEM.norm>
0

>  <SCORE.heavy>
23

>  <SCORE.norm>
-1.33019

>  <RMSD>
2.023

$$$$
1uui_lig
 OpenBabel11021811413D
libRbt.so/2013.1/901 2013/11/27
 23 24  0  0  0  0  0  0  0  0999 V2000
  -11.6668    1.1359    2.3774 C   0  0  0  0  0  0  0  0  0  0  0  0
   -9.3934   -0.2959    1.2671 O   0  0  0  0  0  0  0  0  0  0  0  0
  -13.6607    1.0722   -2.2574 O   0  0  0  0  0  0  0  0  0  0  0  0
   -8.1353    0.0484    0.6734 C   0  0  0  0  0  0  0  0  0  0  0  0
  -13.2470    2.1330   -3.1221 C   0  0  0  0  0  0  0  0  0  0  0  0
  -12.3818    2.4441    2.5409 N   0  0  0  0  0  0  0  0  0  0  0  0
   -7.0044   -0.4841    1.5547 C   0  0  0  0  0  0  0  0  0  0  0  0
  -11.9386    3.1509    3.7733 C   0  0  0  0  0  0  0  0  0  0  0  0
  -13.8542    2.2426    2.5873 C   0  0  0  0  0  0  0  0  0  0  0  0
   -7.0204   -2.0160    1.5586 C   0  0  0  0  0  0  0  0  0  0  0  0
  -12.2286    2.3312    5.0421 C   0  0  0  0  0  0  0  0  0  0  0  0
  -14.2652    1.3299    3.7553 C   0  0  0  0  0  0  0  0  0  0  0  0
   -6.6564   -2.5171    0.2144 N   0  0  0  0  0  0  0  0  0  0  0  0
  -13.1830    1.2085    4.7812 N   0  0  0  0  0  0  0  0  0  0  0  0
  -13.2218    0.1281    5.6821 C   0  0  0  0  0  0  0  0  0  0  0  0
  -12.0716   -0.3894    6.2000 N   0  0  0  0  0  0  0  0  0  0  0  0
  -14.3957   -0.5109    5.9527 N   0  0  0  0  0  0  0  0  0  0  0  0
  -10.4636    0.0518    0.3839 C   0  0  0  0  0  0  0  0  0  0  0  0
  -11.5967    0.7516    0.8813 C   0  0  0  0  0  0  0  0  0  0  0  0
  -12.6606    1.0913    0.0000 C   0  0  0  0  0  0  0  0  0  0  0  0
  -12.5892    0.7315   -1.3732 C   0  0  0  0  0  0  0  0  0  0  0  0
  -11.4558    0.0338   -1.8671 C   0  0  0  0  0  0  0  0  0  0  0  0
  -10.3940   -0.3067   -0.9884 C   0  0  0  0  0  0  0  0  0  0  0  0
  2  4  1  0  0  0  0
  3  5  1  0  0  0  0
  4  7  1  0  0  0  0
  6  1  1  0  0  0  0
  7 10  1  0  0  0  0
  8  6  1  0  0  0  0
  8 11  1  0  0  0  0
  9  6  1  0  0  0  0
 10 13  1  0  0  0  0
 11 14  1  0  0  0  0
 12  9  1  0  0  0  0
 14 12  1  0  0  0  0
 14 15  1  0  0  0  0
 15 16  1  0  0  0  0
 15 17  1  0  0  0  0
 18  2  1  0  0  0  0
 18 23  2  0  0  0  0
 19  1  1  0  0  0  0
 19 18  1  0  0  0  0
 20 19  2  0  0  0  0
 21  3  1  0  0  0  0
 21 20  1  0  0  0  0
 22 21  2  0  0  0  0
 22 23  1  0  0  0  0
M  END
>  <CHROM.1>
-173.19030599,65.93421628,-153.19491372,67.59245797,36.79116848,-41.27444372
70.23923401,-89.93183452,-133.01909464,146.13350162,107.40329183,-11.43342221
0.55172263,1.76403773,2.27971683,-0.46168700,1.64976924

>  <Name>
1uui_lig

>  <RI>
0

>  <Rbt.Current_Directory>
/home/itssahil/PROJECTS/Mol_Feturizer/New_Systems/rnas/1uui

>  <Rbt.Executable>
rbdock ($Id: //depot/dev/client3/rdock/2013.1/src/exe/rbdock.cxx#4 $)

>  <Rbt.Library>
libRbt.so (2013.1, Build901 2013/11/27)

>  <Rbt.Parameter_File>
/export/apps/rDock/src/rDock_2013.1_src/data/scripts/dock_solv.prm

>  <Rbt.Receptor>
prm/pocket_docking_3.prm

>  <SCORE>
-29.7528

>  <SCORE.INTER>
-25.3988

>  <SCORE.INTER.CONST>
1

>  <SCORE.INTER.POLAR>
-3.89147

>  <SCORE.INTER.ROT>
10

>  <SCORE.INTER.SOLV>
7.58831

>  <SCORE.INTER.VDW>
-16.7571

>  <SCORE.INTER.norm>
-1.10429

>  <SCORE.INTRA>
-4.4604

>  <SCORE.INTRA.DIHEDRAL>
-8.88783

>  <SCORE.INTRA.DIHEDRAL.0>
23.4151

>  <SCORE.INTRA.POLAR>
0

>  <SCORE.INTRA.POLAR.0>
0

>  <SCORE.INTRA.REPUL>
0

>  <SCORE.INTRA.REPUL.0>
0

>  <SCORE.INTRA.SOLV>
0.2105

>  <SCORE.INTRA.SOLV.lig_0>
-17.3568

>  <SCORE.INTRA.VDW>
-0.121737

>  <SCORE.INTRA.VDW.0>
1.0768

>  <SCORE.INTRA.norm>
-0.193931

>  <SCORE.RESTR>
0.106413

>  <SCORE.RESTR.CAVITY>
0.106413

>  <SCORE.RESTR.norm>
0.00462666

>  <SCORE.SYSTEM>
0

>  <SCORE.SYSTEM.CONST>
0

>  <SCORE.SYSTEM.DIHEDRAL>
0

>  <SCORE.SYSTEM.SOLV>
0

>  <SCORE.SYSTEM.norm>
0

>  <SCORE.heavy>
23

>  <SCORE.norm>
-1.2936

>  <RMSD>
2.043

$$$$
1uui_lig
 OpenBabel11021811413D
libRbt.so/2013.1/901 2013/11/27
 23 24  0  0  0  0  0  0  0  0999 V2000
  -10.2716    1.9965    2.6603 C   0  0  0  0  0  0  0  0  0  0  0  0
   -8.0548    0.3223    1.8031 O   0  0  0  0  0  0  0  0  0  0  0  0
  -11.7819    2.0409   -2.1541 O   0  0  0  0  0  0  0  0  0  0  0  0
   -7.8122   -1.0834    1.6653 C   0  0  0  0  0  0  0  0  0  0  0  0
  -11.3707    3.3033   -2.6843 C   0  0  0  0  0  0  0  0  0  0  0  0
  -10.9315    3.3411    2.7375 N   0  0  0  0  0  0  0  0  0  0  0  0
   -6.3031   -1.3324    1.6646 C   0  0  0  0  0  0  0  0  0  0  0  0
  -10.6243    4.0196    4.0259 C   0  0  0  0  0  0  0  0  0  0  0  0
  -12.4049    3.2195    2.5802 C   0  0  0  0  0  0  0  0  0  0  0  0
   -5.7199   -1.0179    3.0459 C   0  0  0  0  0  0  0  0  0  0  0  0
  -11.1287    3.2136    5.2349 C   0  0  0  0  0  0  0  0  0  0  0  0
  -13.0202    2.3274    3.6719 C   0  0  0  0  0  0  0  0  0  0  0  0
   -4.3413   -1.5493    3.1326 N   0  0  0  0  0  0  0  0  0  0  0  0
  -12.0969    2.1449    4.8348 N   0  0  0  0  0  0  0  0  0  0  0  0
  -12.3162    1.0658    5.7112 C   0  0  0  0  0  0  0  0  0  0  0  0
  -12.4165   -0.2084    5.2367 N   0  0  0  0  0  0  0  0  0  0  0  0
  -12.5670    1.2832    7.0339 N   0  0  0  0  0  0  0  0  0  0  0  0
   -8.9891    0.7579    0.8113 C   0  0  0  0  0  0  0  0  0  0  0  0
  -10.0897    1.5775    1.1830 C   0  0  0  0  0  0  0  0  0  0  0  0
  -11.0188    2.0045    0.1939 C   0  0  0  0  0  0  0  0  0  0  0  0
  -10.8457    1.6121   -1.1612 C   0  0  0  0  0  0  0  0  0  0  0  0
   -9.7450    0.7947   -1.5294 C   0  0  0  0  0  0  0  0  0  0  0  0
   -8.8177    0.3670   -0.5430 C   0  0  0  0  0  0  0  0  0  0  0  0
  2  4  1  0  0  0  0
  3  5  1  0  0  0  0
  4  7  1  0  0  0  0
  6  1  1  0  0  0  0
  7 10  1  0  0  0  0
  8  6  1  0  0  0  0
  8 11  1  0  0  0  0
  9  6  1  0  0  0  0
 10 13  1  0  0  0  0
 11 14  1  0  0  0  0
 12  9  1  0  0  0  0
 14 12  1  0  0  0  0
 14 15  1  0  0  0  0
 15 16  1  0  0  0  0
 15 17  1  0  0  0  0
 18  2  1  0  0  0  0
 18 23  2  0  0  0  0
 19  1  1  0  0  0  0
 19 18  1  0  0  0  0
 20 19  2  0  0  0  0
 21  3  1  0  0  0  0
 21 20  1  0  0  0  0
 22 21  2  0  0  0  0
 22 23  1  0  0  0  0
M  END
>  <CHROM.1>
130.93272909,67.81827825,-156.36345146,167.06288557,179.61435662,-138.23582696
53.58963162,60.22594062,132.56494856,149.21378965,88.46473210,-10.09055872
1.28924393,2.20290069,2.55960056,-0.54615562,1.70768060

>  <Name>
1uui_lig

>  <RI>
0

>  <Rbt.Current_Directory>
/home/itssahil/PROJECTS/Mol_Feturizer/New_Systems/rnas/1uui

>  <Rbt.Executable>
rbdock ($Id: //depot/dev/client3/rdock/2013.1/src/exe/rbdock.cxx#4 $)

>  <Rbt.Library>
libRbt.so (2013.1, Build901 2013/11/27)

>  <Rbt.Parameter_File>
/export/apps/rDock/src/rDock_2013.1_src/data/scripts/dock_solv.prm

>  <Rbt.Receptor>
prm/pocket_docking_5.prm

>  <SCORE>
-14.3317

>  <SCORE.INTER>
-11.9436

>  <SCORE.INTER.CONST>
1

>  <SCORE.INTER.POLAR>
-1.51238

>  <SCORE.INTER.ROT>
10

>  <SCORE.INTER.SOLV>
6.56053

>  <SCORE.INTER.VDW>
-15.3746

>  <SCORE.INTER.norm>
-0.519287

>  <SCORE.INTRA>
-2.38813

>  <SCORE.INTRA.DIHEDRAL>
-3.04832

>  <SCORE.INTRA.DIHEDRAL.0>
23.4151

>  <SCORE.INTRA.POLAR>
0

>  <SCORE.INTRA.POLAR.0>
0

>  <SCORE.INTRA.REPUL>
0

>  <SCORE.INTRA.REPUL.0>
0

>  <SCORE.INTRA.SOLV>
-0.0410304

>  <SCORE.INTRA.SOLV.lig_0>
-17.3568

>  <SCORE.INTRA.VDW>
-0.843451

>  <SCORE.INTRA.VDW.0>
1.0768

>  <SCORE.INTRA.norm>
-0.103832

>  <SCORE.RESTR>
0

>  <SCORE.RESTR.CAVITY>
0

>  <SCORE.RESTR.norm>
0

>  <SCORE.SYSTEM>
0

>  <SCORE.SYSTEM.CONST>
0

>  <SCORE.SYSTEM.DIHEDRAL>
0

>  <SCORE.SYSTEM.SOLV>
0

>  <SCORE.SYSTEM.norm>
0

>  <SCORE.heavy>
23

>  <SCORE.norm>
-0.623118

>  <RMSD>
2.102

$$$$
1uui_lig
 OpenBabel11021811413D
libRbt.so/2013.1/901 2013/11/27
 23 24  0  0  0  0  0  0  0  0999 V2000
  -12.0481    0.8551    2.5610 C   0  0  0  0  0  0  0  0  0  0  0  0
   -9.4907    0.2445    1.3208 O   0  0  0  0  0  0  0  0  0  0  0  0
  -14.1189    0.3079   -2.0078 O   0  0  0  0  0  0  0  0  0  0  0  0
   -8.6069   -0.8047    0.9060 C   0  0  0  0  0  0  0  0  0  0  0  0
  -14.4632   -1.0321   -2.3679 C   0  0  0  0  0  0  0  0  0  0  0  0
  -12.9998    1.9920    2.7876 N   0  0  0  0  0  0  0  0  0  0  0  0
   -7.3826   -0.8186    1.8226 C   0  0  0  0  0  0  0  0  0  0  0  0
  -12.4385    2.9827    3.7458 C   0  0  0  0  0  0  0  0  0  0  0  0
  -14.3070    1.4975    3.2946 C   0  0  0  0  0  0  0  0  0  0  0  0
   -6.3497   -1.8228    1.3015 C   0  0  0  0  0  0  0  0  0  0  0  0
  -12.1654    2.3581    5.1246 C   0  0  0  0  0  0  0  0  0  0  0  0
  -14.1499    0.7402    4.6243 C   0  0  0  0  0  0  0  0  0  0  0  0
   -5.2969   -2.0231    2.3223 N   0  0  0  0  0  0  0  0  0  0  0  0
  -12.8401    1.0320    5.2857 N   0  0  0  0  0  0  0  0  0  0  0  0
  -12.3650    0.1444    6.2690 C   0  0  0  0  0  0  0  0  0  0  0  0
  -11.7419    0.6121    7.3879 N   0  0  0  0  0  0  0  0  0  0  0  0
  -12.3960   -1.2033    6.0636 N   0  0  0  0  0  0  0  0  0  0  0  0
  -10.6528    0.2647    0.4869 C   0  0  0  0  0  0  0  0  0  0  0  0
  -11.9256    0.5576    1.0486 C   0  0  0  0  0  0  0  0  0  0  0  0
  -13.0791    0.5722    0.2161 C   0  0  0  0  0  0  0  0  0  0  0  0
  -12.9577    0.2946   -1.1726 C   0  0  0  0  0  0  0  0  0  0  0  0
  -11.6852    0.0038   -1.7307 C   0  0  0  0  0  0  0  0  0  0  0  0
  -10.5334   -0.0122   -0.9007 C   0  0  0  0  0  0  0  0  0  0  0  0
  2  4  1  0  0  0  0
  3  5  1  0  0  0  0
  4  7  1  0  0  0  0
  6  1  1  0  0  0  0
  7 10  1  0  0  0  0
  8  6  1  0  0  0  0
  8 11  1  0  0  0  0
  9  6  1  0  0  0  0
 10 13  1  0  0  0  0
 11 14  1  0  0  0  0
 12  9  1  0  0  0  0
 14 12  1  0  0  0  0
 14 15  1  0  0  0  0
 15 16  1  0  0  0  0
 15 17  1  0  0  0  0
 18  2  1  0  0  0  0
 18 23  2  0  0  0  0
 19  1  1  0  0  0  0
 19 18  1  0  0  0  0
 20 19  2  0  0  0  0
 21  3  1  0  0  0  0
 21 20  1  0  0  0  0
 22 21  2  0  0  0  0
 22 23  1  0  0  0  0
M  END
>  <CHROM.1>
-179.24510125,-173.47896236,-133.57959588,-169.09833631,61.49178616,27.47401499
42.25617015,-49.37882566,142.55535732,138.78994635,-107.22762779,-11.43067627
0.26445010,2.17335572,2.03412054,-0.31706209,1.44825177

>  <Name>
1uui_lig

>  <RI>
0

>  <Rbt.Current_Directory>
/home/itssahil/PROJECTS/Mol_Feturizer/New_Systems/rnas/1uui

>  <Rbt.Executable>
rbdock ($Id: //depot/dev/client3/rdock/2013.1/src/exe/rbdock.cxx#4 $)

>  <Rbt.Library>
libRbt.so (2013.1, Build901 2013/11/27)

>  <Rbt.Parameter_File>
/export/apps/rDock/src/rDock_2013.1_src/data/scripts/dock_solv.prm

>  <Rbt.Receptor>
prm/pocket_docking_6.prm

>  <SCORE>
-28.9592

>  <SCORE.INTER>
-24.4048

>  <SCORE.INTER.CONST>
1

>  <SCORE.INTER.POLAR>
-2.25987

>  <SCORE.INTER.ROT>
10

>  <SCORE.INTER.SOLV>
8.98318

>  <SCORE.INTER.VDW>
-21.998

>  <SCORE.INTER.norm>
-1.06108

>  <SCORE.INTRA>
-4.55448

>  <SCORE.INTRA.DIHEDRAL>
-9.35047

>  <SCORE.INTRA.DIHEDRAL.0>
23.4151

>  <SCORE.INTRA.POLAR>
0

>  <SCORE.INTRA.POLAR.0>
0

>  <SCORE.INTRA.REPUL>
0

>  <SCORE.INTRA.REPUL.0>
0

>  <SCORE.INTRA.SOLV>
-0.100904

>  <SCORE.INTRA.SOLV.lig_0>
-17.3568

>  <SCORE.INTRA.VDW>
0.171208

>  <SCORE.INTRA.VDW.0>
1.0768

>  <SCORE.INTRA.norm>
-0.198021

>  <SCORE.RESTR>
0

>  <SCORE.RESTR.CAVITY>
0

>  <SCORE.RESTR.norm>
0

>  <SCORE.SYSTEM>
0

>  <SCORE.SYSTEM.CONST>
0

>  <SCORE.SYSTEM.DIHEDRAL>
0

>  <SCORE.SYSTEM.SOLV>
0

>  <SCORE.SYSTEM.norm>
0

>  <SCORE.heavy>
23

>  <SCORE.norm>
-1.2591

>  <RMSD>
2.106

$$$$
1uui_lig
 OpenBabel11021811413D
libRbt.so/2013.1/901 2013/11/27
 23 24  0  0  0  0  0  0  0  0999 V2000
  -11.8593    0.6120    2.7871 C   0  0  0  0  0  0  0  0  0  0  0  0
   -9.3425    1.5534    1.6776 O   0  0  0  0  0  0  0  0  0  0  0  0
  -13.8295    1.1964   -1.8215 O   0  0  0  0  0  0  0  0  0  0  0  0
   -8.7046    0.2745    1.7847 C   0  0  0  0  0  0  0  0  0  0  0  0
  -13.6269    0.1244   -2.7455 C   0  0  0  0  0  0  0  0  0  0  0  0
  -13.2247    0.0480    3.0461 N   0  0  0  0  0  0  0  0  0  0  0  0
   -7.9081    0.0048    0.5072 C   0  0  0  0  0  0  0  0  0  0  0  0
  -14.2355    1.1297    3.1976 C   0  0  0  0  0  0  0  0  0  0  0  0
  -13.2248   -0.8049    4.2639 C   0  0  0  0  0  0  0  0  0  0  0  0
   -7.0244   -1.2329    0.6926 C   0  0  0  0  0  0  0  0  0  0  0  0
  -13.9124    2.0569    4.3815 C   0  0  0  0  0  0  0  0  0  0  0  0
  -12.7960   -0.0130    5.5110 C   0  0  0  0  0  0  0  0  0  0  0  0
   -7.8423   -2.4541    0.5191 N   0  0  0  0  0  0  0  0  0  0  0  0
  -12.8870    1.4649    5.2968 N   0  0  0  0  0  0  0  0  0  0  0  0
  -12.1701    2.3193    6.1551 C   0  0  0  0  0  0  0  0  0  0  0  0
  -11.4520    3.3657    5.6568 N   0  0  0  0  0  0  0  0  0  0  0  0
  -12.0673    2.0422    7.4864 N   0  0  0  0  0  0  0  0  0  0  0  0
  -10.4707    1.4667    0.8025 C   0  0  0  0  0  0  0  0  0  0  0  0
  -11.7223    1.0111    1.2994 C   0  0  0  0  0  0  0  0  0  0  0  0
  -12.8404    0.9222    0.4242 C   0  0  0  0  0  0  0  0  0  0  0  0
  -12.7047    1.2882   -0.9425 C   0  0  0  0  0  0  0  0  0  0  0  0
  -11.4538    1.7440   -1.4354 C   0  0  0  0  0  0  0  0  0  0  0  0
  -10.3371    1.8320   -0.5632 C   0  0  0  0  0  0  0  0  0  0  0  0
  2  4  1  0  0  0  0
  3  5  1  0  0  0  0
  4  7  1  0  0  0  0
  6  1  1  0  0  0  0
  7 10  1  0  0  0  0
  8  6  1  0  0  0  0
  8 11  1  0  0  0  0
  9  6  1  0  0  0  0
 10 13  1  0  0  0  0
 11 14  1  0  0  0  0
 12  9  1  0  0  0  0
 14 12  1  0  0  0  0
 14 15  1  0  0  0  0
 15 16  1  0  0  0  0
 15 17  1  0  0  0  0
 18  2  1  0  0  0  0
 18 23  2  0  0  0  0
 19  1  1  0  0  0  0
 19 18  1  0  0  0  0
 20 19  2  0  0  0  0
 21  3  1  0  0  0  0
 21 20  1  0  0  0  0
 22 21  2  0  0  0  0
 22 23  1  0  0  0  0
M  END
>  <CHROM.1>
75.46023601,170.11321095,-79.85772140,79.69714049,88.71619796,-56.76733041
71.71395878,76.54063604,83.54322509,-174.78622229,-109.69357426,-11.52700842
0.84035221,2.13052590,1.91977395,-0.29445917,1.45188703

>  <Name>
1uui_lig

>  <RI>
0

>  <Rbt.Current_Directory>
/home/itssahil/PROJECTS/Mol_Feturizer/New_Systems/rnas/1uui

>  <Rbt.Executable>
rbdock ($Id: //depot/dev/client3/rdock/2013.1/src/exe/rbdock.cxx#4 $)

>  <Rbt.Library>
libRbt.so (2013.1, Build901 2013/11/27)

>  <Rbt.Parameter_File>
/export/apps/rDock/src/rDock_2013.1_src/data/scripts/dock_solv.prm

>  <Rbt.Receptor>
prm/pocket_docking_3.prm

>  <SCORE>
-17.5459

>  <SCORE.INTER>
-15.1789

>  <SCORE.INTER.CONST>
1

>  <SCORE.INTER.POLAR>
-1.64957

>  <SCORE.INTER.ROT>
10

>  <SCORE.INTER.SOLV>
6.21865

>  <SCORE.INTER.VDW>
-16.9602

>  <SCORE.INTER.norm>
-0.659952

>  <SCORE.INTRA>
-3.00917

>  <SCORE.INTRA.DIHEDRAL>
-4.57854

>  <SCORE.INTRA.DIHEDRAL.0>
23.4151

>  <SCORE.INTRA.POLAR>
0

>  <SCORE.INTRA.POLAR.0>
0

>  <SCORE.INTRA.REPUL>
0

>  <SCORE.INTRA.REPUL.0>
0

>  <SCORE.INTRA.SOLV>
-0.0171203

>  <SCORE.INTRA.SOLV.lig_0>
-17.3568

>  <SCORE.INTRA.VDW>
-0.711345

>  <SCORE.INTRA.VDW.0>
1.0768

>  <SCORE.INTRA.norm>
-0.130834

>  <SCORE.RESTR>
0.642149

>  <SCORE.RESTR.CAVITY>
0.642149

>  <SCORE.RESTR.norm>
0.0279195

>  <SCORE.SYSTEM>
0

>  <SCORE.SYSTEM.CONST>
0

>  <SCORE.SYSTEM.DIHEDRAL>
0

>  <SCORE.SYSTEM.SOLV>
0

>  <SCORE.SYSTEM.norm>
0

>  <SCORE.heavy>
23

>  <SCORE.norm>
-0.762866

>  <RMSD>
2.158

$$$$
1uui_lig
 OpenBabel11021811413D
libRbt.so/2013.1/901 2013/11/27
 23 24  0  0  0  0  0  0  0  0999 V2000
  -11.5617    1.7236    3.1867 C   0  0  0  0  0  0  0  0  0  0  0  0
   -8.8828    1.9307    2.0767 O   0  0  0  0  0  0  0  0  0  0  0  0
  -13.2414    1.4077   -1.5610 O   0  0  0  0  0  0  0  0  0  0  0  0
   -7.7300    1.2573    1.5556 C   0  0  0  0  0  0  0  0  0  0  0  0
  -12.9599    0.3600   -2.4922 C   0  0  0  0  0  0  0  0  0  0  0  0
  -12.7343    2.6052    3.4987 N   0  0  0  0  0  0  0  0  0  0  0  0
   -7.8858   -0.2475    1.7808 C   0  0  0  0  0  0  0  0  0  0  0  0
  -12.4443    3.5009    4.6512 C   0  0  0  0  0  0  0  0  0  0  0  0
  -13.9451    1.7942    3.7934 C   0  0  0  0  0  0  0  0  0  0  0  0
   -6.6612   -0.9883    1.2344 C   0  0  0  0  0  0  0  0  0  0  0  0
  -12.1387    2.7078    5.9332 C   0  0  0  0  0  0  0  0  0  0  0  0
  -13.7232    0.8597    4.9949 C   0  0  0  0  0  0  0  0  0  0  0  0
   -6.8063   -2.4387    1.4911 N   0  0  0  0  0  0  0  0  0  0  0  0
  -12.5426    1.2715    5.8165 N   0  0  0  0  0  0  0  0  0  0  0  0
  -11.9619    0.3308    6.6874 C   0  0  0  0  0  0  0  0  0  0  0  0
  -12.2016   -1.0025    6.5334 N   0  0  0  0  0  0  0  0  0  0  0  0
  -11.2581    0.7375    7.7822 N   0  0  0  0  0  0  0  0  0  0  0  0
   -9.9783    1.8032    1.1658 C   0  0  0  0  0  0  0  0  0  0  0  0
  -11.3066    1.6981    1.6618 C   0  0  0  0  0  0  0  0  0  0  0  0
  -12.3925    1.5670    0.7521 C   0  0  0  0  0  0  0  0  0  0  0  0
  -12.1485    1.5414   -0.6479 C   0  0  0  0  0  0  0  0  0  0  0  0
  -10.8212    1.6479   -1.1401 C   0  0  0  0  0  0  0  0  0  0  0  0
   -9.7366    1.7776   -0.2332 C   0  0  0  0  0  0  0  0  0  0  0  0
  2  4  1  0  0  0  0
  3  5  1  0  0  0  0
  4  7  1  0  0  0  0
  6  1  1  0  0  0  0
  7 10  1  0  0  0  0
  8  6  1  0  0  0  0
  8 11  1  0  0  0  0
  9  6  1  0  0  0  0
 10 13  1  0  0  0  0
 11 14  1  0  0  0  0
 12  9  1  0  0  0  0
 14 12  1  0  0  0  0
 14 15  1  0  0  0  0
 15 16  1  0  0  0  0
 15 17  1  0  0  0  0
 18  2  1  0  0  0  0
 18 23  2  0  0  0  0
 19  1  1  0  0  0  0
 19 18  1  0  0  0  0
 20 19  2  0  0  0  0
 21  3  1  0  0  0  0
 21 20  1  0  0  0  0
 22 21  2  0  0  0  0
 22 23  1  0  0  0  0
M  END
>  <CHROM.1>
-78.05104847,-179.83352800,-134.81668732,178.46105960,-58.86479955,-173.64048060
139.69634827,157.16438220,145.72014125,136.25199691,-129.71514285,-11.06547217
1.06779835,2.59727255,1.97082624,-0.42430881,1.64769663

>  <Name>
1uui_lig

>  <RI>
0

>  <Rbt.Current_Directory>
/home/itssahil/PROJECTS/Mol_Feturizer/New_Systems/rnas/1uui

>  <Rbt.Executable>
rbdock ($Id: //depot/dev/client3/rdock/2013.1/src/exe/rbdock.cxx#4 $)

>  <Rbt.Library>
libRbt.so (2013.1, Build901 2013/11/27)

>  <Rbt.Parameter_File>
/export/apps/rDock/src/rDock_2013.1_src/data/scripts/dock_solv.prm

>  <Rbt.Receptor>
prm/pocket_docking_3.prm

>  <SCORE>
-23.5531

>  <SCORE.INTER>
-21.4279

>  <SCORE.INTER.CONST>
1

>  <SCORE.INTER.POLAR>
-2.43195

>  <SCORE.INTER.ROT>
10

>  <SCORE.INTER.SOLV>
8.63049

>  <SCORE.INTER.VDW>
-19.3223

>  <SCORE.INTER.norm>
-0.93165

>  <SCORE.INTRA>
-2.20543

>  <SCORE.INTRA.DIHEDRAL>
-10.1554

>  <SCORE.INTRA.DIHEDRAL.0>
23.4151

>  <SCORE.INTRA.POLAR>
0

>  <SCORE.INTRA.POLAR.0>
0

>  <SCORE.INTRA.REPUL>
0

>  <SCORE.INTRA.REPUL.0>
0

>  <SCORE.INTRA.SOLV>
-0.11433

>  <SCORE.INTRA.SOLV.lig_0>
-17.3568

>  <SCORE.INTRA.VDW>
2.92944

>  <SCORE.INTRA.VDW.0>
1.0768

>  <SCORE.INTRA.norm>
-0.0958881

>  <SCORE.RESTR>
0.0803066

>  <SCORE.RESTR.CAVITY>
0.0803066

>  <SCORE.RESTR.norm>
0.00349159

>  <SCORE.SYSTEM>
0

>  <SCORE.SYSTEM.CONST>
0

>  <SCORE.SYSTEM.DIHEDRAL>
0

>  <SCORE.SYSTEM.SOLV>
0

>  <SCORE.SYSTEM.norm>
0

>  <SCORE.heavy>
23

>  <SCORE.norm>
-1.02405

>  <RMSD>
2.171

$$$$
1uui_lig
 OpenBabel11021811413D
libRbt.so/2013.1/901 2013/11/27
 23 24  0  0  0  0  0  0  0  0999 V2000
  -11.1711    1.6091    2.3519 C   0  0  0  0  0  0  0  0  0  0  0  0
   -8.2889    1.2986    2.1324 O   0  0  0  0  0  0  0  0  0  0  0  0
  -11.1022    3.3302   -2.3910 O   0  0  0  0  0  0  0  0  0  0  0  0
   -7.5096    0.1585    1.7491 C   0  0  0  0  0  0  0  0  0  0  0  0
  -10.9852    4.7546   -2.4285 C   0  0  0  0  0  0  0  0  0  0  0  0
  -11.9258    2.7994    2.8648 N   0  0  0  0  0  0  0  0  0  0  0  0
   -8.4501   -0.9661    1.3133 C   0  0  0  0  0  0  0  0  0  0  0  0
  -11.5920    3.0775    4.2881 C   0  0  0  0  0  0  0  0  0  0  0  0
  -13.3925    2.5969    2.7299 C   0  0  0  0  0  0  0  0  0  0  0  0
   -7.6787   -2.0059    0.4943 C   0  0  0  0  0  0  0  0  0  0  0  0
  -11.9573    1.8982    5.2055 C   0  0  0  0  0  0  0  0  0  0  0  0
  -13.8689    1.3616    3.5131 C   0  0  0  0  0  0  0  0  0  0  0  0
   -6.5800   -2.5641    1.3139 N   0  0  0  0  0  0  0  0  0  0  0  0
  -12.8639    0.9184    4.5289 N   0  0  0  0  0  0  0  0  0  0  0  0
  -12.9453   -0.3920    5.0356 C   0  0  0  0  0  0  0  0  0  0  0  0
  -13.7109   -1.3334    4.4139 N   0  0  0  0  0  0  0  0  0  0  0  0
  -12.3710   -0.7135    6.2299 N   0  0  0  0  0  0  0  0  0  0  0  0
   -8.9964    1.8118    1.0001 C   0  0  0  0  0  0  0  0  0  0  0  0
  -10.4068    1.9804    1.0599 C   0  0  0  0  0  0  0  0  0  0  0  0
  -11.1067    2.4869   -0.0703 C   0  0  0  0  0  0  0  0  0  0  0  0
  -10.3966    2.8228   -1.2549 C   0  0  0  0  0  0  0  0  0  0  0  0
   -8.9881    2.6544   -1.3111 C   0  0  0  0  0  0  0  0  0  0  0  0
   -8.2887    2.1480   -0.1841 C   0  0  0  0  0  0  0  0  0  0  0  0
  2  4  1  0  0  0  0
  3  5  1  0  0  0  0
  4  7  1  0  0  0  0
  6  1  1  0  0  0  0
  7 10  1  0  0  0  0
  8  6  1  0  0  0  0
  8 11  1  0  0  0  0
  9  6  1  0  0  0  0
 10 13  1  0  0  0  0
 11 14  1  0  0  0  0
 12  9  1  0  0  0  0
 14 12  1  0  0  0  0
 14 15  1  0  0  0  0
 15 16  1  0  0  0  0
 15 17  1  0  0  0  0
 18  2  1  0  0  0  0
 18 23  2  0  0  0  0
 19  1  1  0  0  0  0
 19 18  1  0  0  0  0
 20 19  2  0  0  0  0
 21  3  1  0  0  0  0
 21 20  1  0  0  0  0
 22 21  2  0  0  0  0
 22 23  1  0  0  0  0
M  END
>  <CHROM.1>
-64.81079925,162.06124327,-126.35028166,59.39084382,40.85148953,-176.96595974
50.20161848,-135.26275061,125.61150249,122.42042137,99.26514479,-10.63334808
1.23262881,1.89761087,2.28421525,-0.60061008,2.27938868

>  <Name>
1uui_lig

>  <RI>
0

>  <Rbt.Current_Directory>
/home/itssahil/PROJECTS/Mol_Feturizer/New_Systems/rnas/1uui

>  <Rbt.Executable>
rbdock ($Id: //depot/dev/client3/rdock/2013.1/src/exe/rbdock.cxx#4 $)

>  <Rbt.Library>
libRbt.so (2013.1, Build901 2013/11/27)

>  <Rbt.Parameter_File>
/export/apps/rDock/src/rDock_2013.1_src/data/scripts/dock_solv.prm

>  <Rbt.Receptor>
prm/pocket_docking_4.prm

>  <SCORE>
-24.915

>  <SCORE.INTER>
-21.983

>  <SCORE.INTER.CONST>
1

>  <SCORE.INTER.POLAR>
-3.615

>  <SCORE.INTER.ROT>
10

>  <SCORE.INTER.SOLV>
7.40803

>  <SCORE.INTER.VDW>
-15.3413

>  <SCORE.INTER.norm>
-0.955781

>  <SCORE.INTRA>
-2.93208

>  <SCORE.INTRA.DIHEDRAL>
-5.66689

>  <SCORE.INTRA.DIHEDRAL.0>
23.4151

>  <SCORE.INTRA.POLAR>
0

>  <SCORE.INTRA.POLAR.0>
0

>  <SCORE.INTRA.REPUL>
0

>  <SCORE.INTRA.REPUL.0>
0

>  <SCORE.INTRA.SOLV>
0.0271352

>  <SCORE.INTRA.SOLV.lig_0>
-17.3568

>  <SCORE.INTRA.VDW>
-0.112204

>  <SCORE.INTRA.VDW.0>
1.0768

>  <SCORE.INTRA.norm>
-0.127482

>  <SCORE.RESTR>
0

>  <SCORE.RESTR.CAVITY>
0

>  <SCORE.RESTR.norm>
0

>  <SCORE.SYSTEM>
0

>  <SCORE.SYSTEM.CONST>
0

>  <SCORE.SYSTEM.DIHEDRAL>
0

>  <SCORE.SYSTEM.SOLV>
0

>  <SCORE.SYSTEM.norm>
0

>  <SCORE.heavy>
23

>  <SCORE.norm>
-1.08326

>  <RMSD>
2.197

$$$$
1uui_lig
 OpenBabel11021811413D
libRbt.so/2013.1/901 2013/11/27
 23 24  0  0  0  0  0  0  0  0999 V2000
  -11.7654    1.3054    1.8285 C   0  0  0  0  0  0  0  0  0  0  0  0
   -9.1590    1.0849    0.5600 O   0  0  0  0  0  0  0  0  0  0  0  0
  -13.7339    1.5369   -2.8119 O   0  0  0  0  0  0  0  0  0  0  0  0
   -8.4662   -0.1379    0.2790 C   0  0  0  0  0  0  0  0  0  0  0  0
  -14.0129    2.9171   -3.0594 C   0  0  0  0  0  0  0  0  0  0  0  0
  -12.4666    2.5525    2.2786 N   0  0  0  0  0  0  0  0  0  0  0  0
   -7.1560   -0.1627    1.0677 C   0  0  0  0  0  0  0  0  0  0  0  0
  -12.2093    2.8264    3.7185 C   0  0  0  0  0  0  0  0  0  0  0  0
  -13.9318    2.4511    2.0473 C   0  0  0  0  0  0  0  0  0  0  0  0
   -7.2323   -1.2168    2.1768 C   0  0  0  0  0  0  0  0  0  0  0  0
  -12.7171    1.6882    4.6200 C   0  0  0  0  0  0  0  0  0  0  0  0
  -14.5451    1.2630    2.8079 C   0  0  0  0  0  0  0  0  0  0  0  0
   -5.9237   -1.3081    2.8622 N   0  0  0  0  0  0  0  0  0  0  0  0
  -13.6436    0.7649    3.8930 N   0  0  0  0  0  0  0  0  0  0  0  0
  -13.8509   -0.5295    4.4050 C   0  0  0  0  0  0  0  0  0  0  0  0
  -12.8084   -1.2627    4.8894 N   0  0  0  0  0  0  0  0  0  0  0  0
  -15.0709   -1.1304    4.3054 N   0  0  0  0  0  0  0  0  0  0  0  0
  -10.3079    1.2023   -0.2840 C   0  0  0  0  0  0  0  0  0  0  0  0
  -11.6037    1.3120    0.2907 C   0  0  0  0  0  0  0  0  0  0  0  0
  -12.7438    1.4240   -0.5528 C   0  0  0  0  0  0  0  0  0  0  0  0
  -12.5862    1.4260   -1.9654 C   0  0  0  0  0  0  0  0  0  0  0  0
  -11.2909    1.3176   -2.5361 C   0  0  0  0  0  0  0  0  0  0  0  0
  -10.1524    1.2047   -1.6954 C   0  0  0  0  0  0  0  0  0  0  0  0
  2  4  1  0  0  0  0
  3  5  1  0  0  0  0
  4  7  1  0  0  0  0
  6  1  1  0  0  0  0
  7 10  1  0  0  0  0
  8  6  1  0  0  0  0
  8 11  1  0  0  0  0
  9  6  1  0  0  0  0
 10 13  1  0  0  0  0
 11 14  1  0  0  0  0
 12  9  1  0  0  0  0
 14 12  1  0  0  0  0
 14 15  1  0  0  0  0
 15 16  1  0  0  0  0
 15 17  1  0  0  0  0
 18  2  1  0  0  0  0
 18 23  2  0  0  0  0
 19  1  1  0  0  0  0
 19 18  1  0  0  0  0
 20 19  2  0  0  0  0
 21  3  1  0  0  0  0
 21 20  1  0  0  0  0
 22 21  2  0  0  0  0
 22 23  1  0  0  0  0
M  END
>  <CHROM.1>
173.21498538,110.38381700,-159.32138571,175.47740092,67.56253669,-41.89136432
-43.36575206,120.47745558,120.61356011,122.73805749,88.95784512,-11.60256316
0.85492099,1.33552008,-2.81216054,0.26262239,-1.28271410

>  <Name>
1uui_lig

>  <RI>
0

>  <Rbt.Current_Directory>
/home/itssahil/PROJECTS/Mol_Feturizer/New_Systems/rnas/1uui

>  <Rbt.Executable>
rbdock ($Id: //depot/dev/client3/rdock/2013.1/src/exe/rbdock.cxx#4 $)

>  <Rbt.Library>
libRbt.so (2013.1, Build901 2013/11/27)

>  <Rbt.Parameter_File>
/export/apps/rDock/src/rDock_2013.1_src/data/scripts/dock_solv.prm

>  <Rbt.Receptor>
prm/pocket_docking_3.prm

>  <SCORE>
-14.4895

>  <SCORE.INTER>
-10.6952

>  <SCORE.INTER.CONST>
1

>  <SCORE.INTER.POLAR>
-1.80669

>  <SCORE.INTER.ROT>
10

>  <SCORE.INTER.SOLV>
5.77341

>  <SCORE.INTER.VDW>
-13.299

>  <SCORE.INTER.norm>
-0.46501

>  <SCORE.INTRA>
-3.79424

>  <SCORE.INTRA.DIHEDRAL>
-4.14976

>  <SCORE.INTRA.DIHEDRAL.0>
23.4151

>  <SCORE.INTRA.POLAR>
0

>  <SCORE.INTRA.POLAR.0>
0

>  <SCORE.INTRA.REPUL>
0

>  <SCORE.INTRA.REPUL.0>
0

>  <SCORE.INTRA.SOLV>
-0.043995

>  <SCORE.INTRA.SOLV.lig_0>
-17.3568

>  <SCORE.INTRA.VDW>
-1.69737

>  <SCORE.INTRA.VDW.0>
1.0768

>  <SCORE.INTRA.norm>
-0.164967

>  <SCORE.RESTR>
0

>  <SCORE.RESTR.CAVITY>
0

>  <SCORE.RESTR.norm>
0

>  <SCORE.SYSTEM>
0

>  <SCORE.SYSTEM.CONST>
0

>  <SCORE.SYSTEM.DIHEDRAL>
0

>  <SCORE.SYSTEM.SOLV>
0

>  <SCORE.SYSTEM.norm>
0

>  <SCORE.heavy>
23

>  <SCORE.norm>
-0.629977

>  <RMSD>
2.216

$$$$
1uui_lig
 OpenBabel11021811413D
libRbt.so/2013.1/901 2013/11/27
 23 24  0  0  0  0  0  0  0  0999 V2000
  -10.7835    0.6612    1.7943 C   0  0  0  0  0  0  0  0  0  0  0  0
   -7.9464    1.2957    1.8073 O   0  0  0  0  0  0  0  0  0  0  0  0
  -10.6182    1.1356   -3.2266 O   0  0  0  0  0  0  0  0  0  0  0  0
   -7.6697   -0.0372    2.2555 C   0  0  0  0  0  0  0  0  0  0  0  0
  -11.4653    2.2799   -3.3567 C   0  0  0  0  0  0  0  0  0  0  0  0
  -11.9077   -0.2939    1.5234 N   0  0  0  0  0  0  0  0  0  0  0  0
   -6.4997   -0.6029    1.4490 C   0  0  0  0  0  0  0  0  0  0  0  0
  -13.0838    0.4084    0.9419 C   0  0  0  0  0  0  0  0  0  0  0  0
  -12.3164   -0.9996    2.7665 C   0  0  0  0  0  0  0  0  0  0  0  0
   -6.8181   -2.0313    0.9959 C   0  0  0  0  0  0  0  0  0  0  0  0
  -13.6402    1.4822    1.8922 C   0  0  0  0  0  0  0  0  0  0  0  0
  -12.7843   -0.0138    3.8507 C   0  0  0  0  0  0  0  0  0  0  0  0
   -7.9515   -2.0066    0.0445 N   0  0  0  0  0  0  0  0  0  0  0  0
  -13.1103    1.3317    3.2837 N   0  0  0  0  0  0  0  0  0  0  0  0
  -13.1583    2.4389    4.1511 C   0  0  0  0  0  0  0  0  0  0  0  0
  -12.4640    3.5774    3.8674 N   0  0  0  0  0  0  0  0  0  0  0  0
  -13.7888    2.3514    5.3571 N   0  0  0  0  0  0  0  0  0  0  0  0
   -8.6198    1.2587    0.5458 C   0  0  0  0  0  0  0  0  0  0  0  0
  -10.0069    0.9523    0.4892 C   0  0  0  0  0  0  0  0  0  0  0  0
  -10.6712    0.9123   -0.7681 C   0  0  0  0  0  0  0  0  0  0  0  0
   -9.9489    1.1781   -1.9631 C   0  0  0  0  0  0  0  0  0  0  0  0
   -8.5642    1.4851   -1.9032 C   0  0  0  0  0  0  0  0  0  0  0  0
   -7.8999    1.5242   -0.6490 C   0  0  0  0  0  0  0  0  0  0  0  0
  2  4  1  0  0  0  0
  3  5  1  0  0  0  0
  4  7  1  0  0  0  0
  6  1  1  0  0  0  0
  7 10  1  0  0  0  0
  8  6  1  0  0  0  0
  8 11  1  0  0  0  0
  9  6  1  0  0  0  0
 10 13  1  0  0  0  0
 11 14  1  0  0  0  0
 12  9  1  0  0  0  0
 14 12  1  0  0  0  0
 14 15  1  0  0  0  0
 15 16  1  0  0  0  0
 15 17  1  0  0  0  0
 18  2  1  0  0  0  0
 18 23  2  0  0  0  0
 19  1  1  0  0  0  0
 19 18  1  0  0  0  0
 20 19  2  0  0  0  0
 21  3  1  0  0  0  0
 21 20  1  0  0  0  0
 22 21  2  0  0  0  0
 22 23  1  0  0  0  0
M  END
>  <CHROM.1>
75.22463174,-134.52883339,-80.37290465,65.51791329,-95.55642902,-62.85451278
77.51778191,-20.37057822,77.87372218,-149.89198855,72.79577161,-10.53512584
0.78636119,1.12735455,-2.48291050,0.43262335,-1.38921434

>  <Name>
1uui_lig

>  <RI>
0

>  <Rbt.Current_Directory>
/home/itssahil/PROJECTS/Mol_Feturizer/New_Systems/rnas/1uui

>  <Rbt.Executable>
rbdock ($Id: //depot/dev/client3/rdock/2013.1/src/exe/rbdock.cxx#4 $)

>  <Rbt.Library>
libRbt.so (2013.1, Build901 2013/11/27)

>  <Rbt.Parameter_File>
/export/apps/rDock/src/rDock_2013.1_src/data/scripts/dock_solv.prm

>  <Rbt.Receptor>
prm/pocket_docking_3.prm

>  <SCORE>
-21.4809

>  <SCORE.INTER>
-19.0614

>  <SCORE.INTER.CONST>
1

>  <SCORE.INTER.POLAR>
-3.23062

>  <SCORE.INTER.ROT>
10

>  <SCORE.INTER.SOLV>
5.15899

>  <SCORE.INTER.VDW>
-13.9252

>  <SCORE.INTER.norm>
-0.828756

>  <SCORE.INTRA>
-2.41956

>  <SCORE.INTRA.DIHEDRAL>
-0.823422

>  <SCORE.INTRA.DIHEDRAL.0>
23.4151

>  <SCORE.INTRA.POLAR>
0

>  <SCORE.INTRA.POLAR.0>
0

>  <SCORE.INTRA.REPUL>
0

>  <SCORE.INTRA.REPUL.0>
0

>  <SCORE.INTRA.SOLV>
0.578403

>  <SCORE.INTRA.SOLV.lig_0>
-17.3568

>  <SCORE.INTRA.VDW>
-2.29705

>  <SCORE.INTRA.VDW.0>
1.0768

>  <SCORE.INTRA.norm>
-0.105198

>  <SCORE.RESTR>
0

>  <SCORE.RESTR.CAVITY>
0

>  <SCORE.RESTR.norm>
0

>  <SCORE.SYSTEM>
0

>  <SCORE.SYSTEM.CONST>
0

>  <SCORE.SYSTEM.DIHEDRAL>
0

>  <SCORE.SYSTEM.SOLV>
0

>  <SCORE.SYSTEM.norm>
0

>  <SCORE.heavy>
23

>  <SCORE.norm>
-0.933954

>  <RMSD>
2.228

$$$$
1uui_lig
 OpenBabel11021811413D
libRbt.so/2013.1/901 2013/11/27
 23 24  0  0  0  0  0  0  0  0999 V2000
  -11.4997    0.8426    2.0976 C   0  0  0  0  0  0  0  0  0  0  0  0
   -8.6705    1.1271    1.4923 O   0  0  0  0  0  0  0  0  0  0  0  0
  -12.3781    1.6105   -2.8117 O   0  0  0  0  0  0  0  0  0  0  0  0
   -8.3037   -0.2472    1.6676 C   0  0  0  0  0  0  0  0  0  0  0  0
  -12.5333    2.9888   -3.1583 C   0  0  0  0  0  0  0  0  0  0  0  0
  -11.9318    2.1229    2.7486 N   0  0  0  0  0  0  0  0  0  0  0  0
   -7.5020   -0.7098    0.4500 C   0  0  0  0  0  0  0  0  0  0  0  0
  -11.9803    1.9854    4.2296 C   0  0  0  0  0  0  0  0  0  0  0  0
  -13.2641    2.5508    2.2465 C   0  0  0  0  0  0  0  0  0  0  0  0
   -7.4523   -2.2404    0.4064 C   0  0  0  0  0  0  0  0  0  0  0  0
  -12.9829    0.9071    4.6745 C   0  0  0  0  0  0  0  0  0  0  0  0
  -14.3430    1.4906    2.5260 C   0  0  0  0  0  0  0  0  0  0  0  0
   -6.3880   -2.7260    1.3129 N   0  0  0  0  0  0  0  0  0  0  0  0
  -13.9094    0.5092    3.5687 N   0  0  0  0  0  0  0  0  0  0  0  0
  -14.5765   -0.7270    3.6546 C   0  0  0  0  0  0  0  0  0  0  0  0
  -15.5672   -0.9224    4.5707 N   0  0  0  0  0  0  0  0  0  0  0  0
  -14.1582   -1.7962    2.9188 N   0  0  0  0  0  0  0  0  0  0  0  0
   -9.6029    1.2518    0.4146 C   0  0  0  0  0  0  0  0  0  0  0  0
  -10.9967    1.1196    0.6618 C   0  0  0  0  0  0  0  0  0  0  0  0
  -11.9199    1.2400   -0.4139 C   0  0  0  0  0  0  0  0  0  0  0  0
  -11.4485    1.4916   -1.7310 C   0  0  0  0  0  0  0  0  0  0  0  0
  -10.0562    1.6243   -1.9744 C   0  0  0  0  0  0  0  0  0  0  0  0
   -9.1339    1.5033   -0.9018 C   0  0  0  0  0  0  0  0  0  0  0  0
  2  4  1  0  0  0  0
  3  5  1  0  0  0  0
  4  7  1  0  0  0  0
  6  1  1  0  0  0  0
  7 10  1  0  0  0  0
  8  6  1  0  0  0  0
  8 11  1  0  0  0  0
  9  6  1  0  0  0  0
 10 13  1  0  0  0  0
 11 14  1  0  0  0  0
 12  9  1  0  0  0  0
 14 12  1  0  0  0  0
 14 15  1  0  0  0  0
 15 16  1  0  0  0  0
 15 17  1  0  0  0  0
 18  2  1  0  0  0  0
 18 23  2  0  0  0  0
 19  1  1  0  0  0  0
 19 18  1  0  0  0  0
 20 19  2  0  0  0  0
 21  3  1  0  0  0  0
 21 20  1  0  0  0  0
 22 21  2  0  0  0  0
 22 23  1  0  0  0  0
M  END
>  <CHROM.1>
67.22570218,-163.39640247,-160.81116945,-81.85666561,-42.84747145,70.21325884
52.95822387,-155.31263861,87.83505834,97.59319744,103.64146125,-11.33154716
0.60000424,1.28772616,-2.64418848,0.37571733,-1.08024240

>  <Name>
1uui_lig

>  <RI>
0

>  <Rbt.Current_Directory>
/home/itssahil/PROJECTS/Mol_Feturizer/New_Systems/rnas/1uui

>  <Rbt.Executable>
rbdock ($Id: //depot/dev/client3/rdock/2013.1/src/exe/rbdock.cxx#4 $)

>  <Rbt.Library>
libRbt.so (2013.1, Build901 2013/11/27)

>  <Rbt.Parameter_File>
/export/apps/rDock/src/rDock_2013.1_src/data/scripts/dock_solv.prm

>  <Rbt.Receptor>
prm/pocket_docking_3.prm

>  <SCORE>
-21.694

>  <SCORE.INTER>
-16.6392

>  <SCORE.INTER.CONST>
1

>  <SCORE.INTER.POLAR>
-2.67647

>  <SCORE.INTER.ROT>
10

>  <SCORE.INTER.SOLV>
4.98136

>  <SCORE.INTER.VDW>
-14.0984

>  <SCORE.INTER.norm>
-0.723445

>  <SCORE.INTRA>
-5.06934

>  <SCORE.INTRA.DIHEDRAL>
-5.40206

>  <SCORE.INTRA.DIHEDRAL.0>
23.4151

>  <SCORE.INTRA.POLAR>
0

>  <SCORE.INTRA.POLAR.0>
0

>  <SCORE.INTRA.REPUL>
0

>  <SCORE.INTRA.REPUL.0>
0

>  <SCORE.INTRA.SOLV>
0.0869333

>  <SCORE.INTRA.SOLV.lig_0>
-17.3568

>  <SCORE.INTRA.VDW>
-2.41178

>  <SCORE.INTRA.VDW.0>
1.0768

>  <SCORE.INTRA.norm>
-0.220406

>  <SCORE.RESTR>
0.0145356

>  <SCORE.RESTR.CAVITY>
0.0145356

>  <SCORE.RESTR.norm>
0.000631984

>  <SCORE.SYSTEM>
0

>  <SCORE.SYSTEM.CONST>
0

>  <SCORE.SYSTEM.DIHEDRAL>
0

>  <SCORE.SYSTEM.SOLV>
0

>  <SCORE.SYSTEM.norm>
0

>  <SCORE.heavy>
23

>  <SCORE.norm>
-0.943219

>  <RMSD>
2.376

$$$$
1uui_lig
 OpenBabel11021811413D
libRbt.so/2013.1/901 2013/11/27
 23 24  0  0  0  0  0  0  0  0999 V2000
  -11.8540    1.0485    1.0176 C   0  0  0  0  0  0  0  0  0  0  0  0
   -9.3085    0.7688   -0.3584 O   0  0  0  0  0  0  0  0  0  0  0  0
  -13.8086    2.4937   -3.4043 O   0  0  0  0  0  0  0  0  0  0  0  0
   -9.1395   -0.6474   -0.4983 C   0  0  0  0  0  0  0  0  0  0  0  0
  -13.9316    3.9154   -3.3154 C   0  0  0  0  0  0  0  0  0  0  0  0
  -11.9359    2.3262    1.7988 N   0  0  0  0  0  0  0  0  0  0  0  0
   -7.8700   -1.0747    0.2400 C   0  0  0  0  0  0  0  0  0  0  0  0
  -11.3305    2.1724    3.1496 C   0  0  0  0  0  0  0  0  0  0  0  0
  -13.3464    2.7756    1.9359 C   0  0  0  0  0  0  0  0  0  0  0  0
   -8.0012   -0.7588    1.7333 C   0  0  0  0  0  0  0  0  0  0  0  0
  -12.0522    1.1010    3.9846 C   0  0  0  0  0  0  0  0  0  0  0  0
  -14.2090    1.7250    2.6559 C   0  0  0  0  0  0  0  0  0  0  0  0
   -6.7864   -1.2173    2.4437 N   0  0  0  0  0  0  0  0  0  0  0  0
  -13.3766    0.7267    3.3968 N   0  0  0  0  0  0  0  0  0  0  0  0
  -13.9572   -0.5024    3.7610 C   0  0  0  0  0  0  0  0  0  0  0  0
  -13.7965   -1.6081    2.9795 N   0  0  0  0  0  0  0  0  0  0  0  0
  -14.8022   -0.5840    4.8282 N   0  0  0  0  0  0  0  0  0  0  0  0
  -10.4381    1.2052   -1.1197 C   0  0  0  0  0  0  0  0  0  0  0  0
  -11.7040    1.3560   -0.4904 C   0  0  0  0  0  0  0  0  0  0  0  0
  -12.8256    1.7859   -1.2527 C   0  0  0  0  0  0  0  0  0  0  0  0
  -12.6793    2.0634   -2.6390 C   0  0  0  0  0  0  0  0  0  0  0  0
  -11.4137    1.9131   -3.2642 C   0  0  0  0  0  0  0  0  0  0  0  0
  -10.2939    1.4831   -2.5048 C   0  0  0  0  0  0  0  0  0  0  0  0
  2  4  1  0  0  0  0
  3  5  1  0  0  0  0
  4  7  1  0  0  0  0
  6  1  1  0  0  0  0
  7 10  1  0  0  0  0
  8  6  1  0  0  0  0
  8 11  1  0  0  0  0
  9  6  1  0  0  0  0
 10 13  1  0  0  0  0
 11 14  1  0  0  0  0
 12  9  1  0  0  0  0
 14 12  1  0  0  0  0
 14 15  1  0  0  0  0
 15 16  1  0  0  0  0
 15 17  1  0  0  0  0
 18  2  1  0  0  0  0
 18 23  2  0  0  0  0
 19  1  1  0  0  0  0
 19 18  1  0  0  0  0
 20 19  2  0  0  0  0
 21  3  1  0  0  0  0
 21 20  1  0  0  0  0
 22 21  2  0  0  0  0
 22 23  1  0  0  0  0
M  END
>  <CHROM.1>
175.93735257,61.72442317,-147.93014533,178.12496015,-85.65081428,-95.88589820
47.75946465,8.38783638,95.76450886,104.10661549,87.05176269,-11.67579122
0.93808975,0.72945444,1.63799868,-0.34908833,1.93712819

>  <Name>
1uui_lig

>  <RI>
0

>  <Rbt.Current_Directory>
/home/itssahil/PROJECTS/Mol_Feturizer/New_Systems/rnas/1uui

>  <Rbt.Executable>
rbdock ($Id: //depot/dev/client3/rdock/2013.1/src/exe/rbdock.cxx#4 $)

>  <Rbt.Library>
libRbt.so (2013.1, Build901 2013/11/27)

>  <Rbt.Parameter_File>
/export/apps/rDock/src/rDock_2013.1_src/data/scripts/dock_solv.prm

>  <Rbt.Receptor>
prm/pocket_docking_4.prm

>  <SCORE>
-18.2471

>  <SCORE.INTER>
-11.783

>  <SCORE.INTER.CONST>
1

>  <SCORE.INTER.POLAR>
-1.89028

>  <SCORE.INTER.ROT>
10

>  <SCORE.INTER.SOLV>
5.88459

>  <SCORE.INTER.VDW>
-13.7826

>  <SCORE.INTER.norm>
-0.512303

>  <SCORE.INTRA>
-6.46411

>  <SCORE.INTRA.DIHEDRAL>
-6.26878

>  <SCORE.INTRA.DIHEDRAL.0>
23.4151

>  <SCORE.INTRA.POLAR>
0

>  <SCORE.INTRA.POLAR.0>
0

>  <SCORE.INTRA.REPUL>
0

>  <SCORE.INTRA.REPUL.0>
0

>  <SCORE.INTRA.SOLV>
0.0196213

>  <SCORE.INTRA.SOLV.lig_0>
-17.3568

>  <SCORE.INTRA.VDW>
-3.33953

>  <SCORE.INTRA.VDW.0>
1.0768

>  <SCORE.INTRA.norm>
-0.281048

>  <SCORE.RESTR>
0

>  <SCORE.RESTR.CAVITY>
0

>  <SCORE.RESTR.norm>
0

>  <SCORE.SYSTEM>
0

>  <SCORE.SYSTEM.CONST>
0

>  <SCORE.SYSTEM.DIHEDRAL>
0

>  <SCORE.SYSTEM.SOLV>
0

>  <SCORE.SYSTEM.norm>
0

>  <SCORE.heavy>
23

>  <SCORE.norm>
-0.793351

>  <RMSD>
2.530

$$$$
1uui_lig
 OpenBabel11021811413D
libRbt.so/2013.1/901 2013/11/27
 23 24  0  0  0  0  0  0  0  0999 V2000
  -12.3903    0.3034    2.9983 C   0  0  0  0  0  0  0  0  0  0  0  0
   -9.9854   -0.0166    1.3966 O   0  0  0  0  0  0  0  0  0  0  0  0
  -13.8920    3.7356   -0.3820 O   0  0  0  0  0  0  0  0  0  0  0  0
   -8.6811    0.5764    1.3602 C   0  0  0  0  0  0  0  0  0  0  0  0
  -14.9704    3.0373   -1.0094 C   0  0  0  0  0  0  0  0  0  0  0  0
  -12.4189    1.2191    4.1857 N   0  0  0  0  0  0  0  0  0  0  0  0
   -7.6536   -0.4457    1.8489 C   0  0  0  0  0  0  0  0  0  0  0  0
  -12.2338    0.4635    5.4544 C   0  0  0  0  0  0  0  0  0  0  0  0
  -13.6972    1.9764    4.2418 C   0  0  0  0  0  0  0  0  0  0  0  0
   -7.6374   -1.6597    0.9145 C   0  0  0  0  0  0  0  0  0  0  0  0
  -13.3480   -0.5739    5.6737 C   0  0  0  0  0  0  0  0  0  0  0  0
  -14.9100    1.0355    4.3408 C   0  0  0  0  0  0  0  0  0  0  0  0
   -6.6047   -2.6180    1.3679 N   0  0  0  0  0  0  0  0  0  0  0  0
  -14.5180   -0.3432    4.7695 N   0  0  0  0  0  0  0  0  0  0  0  0
  -15.4065   -1.4069    4.5254 C   0  0  0  0  0  0  0  0  0  0  0  0
  -16.5455   -1.5468    5.2617 N   0  0  0  0  0  0  0  0  0  0  0  0
  -15.0841   -2.3945    3.6420 N   0  0  0  0  0  0  0  0  0  0  0  0
  -10.9652    0.9271    0.9543 C   0  0  0  0  0  0  0  0  0  0  0  0
  -12.1579    1.1176    1.7044 C   0  0  0  0  0  0  0  0  0  0  0  0
  -13.1315    2.0539    1.2583 C   0  0  0  0  0  0  0  0  0  0  0  0
  -12.9111    2.7959    0.0661 C   0  0  0  0  0  0  0  0  0  0  0  0
  -11.7186    2.6043   -0.6800 C   0  0  0  0  0  0  0  0  0  0  0  0
  -10.7467    1.6693   -0.2363 C   0  0  0  0  0  0  0  0  0  0  0  0
  2  4  1  0  0  0  0
  3  5  1  0  0  0  0
  4  7  1  0  0  0  0
  6  1  1  0  0  0  0
  7 10  1  0  0  0  0
  8  6  1  0  0  0  0
  8 11  1  0  0  0  0
  9  6  1  0  0  0  0
 10 13  1  0  0  0  0
 11 14  1  0  0  0  0
 12  9  1  0  0  0  0
 14 12  1  0  0  0  0
 14 15  1  0  0  0  0
 15 16  1  0  0  0  0
 15 17  1  0  0  0  0
 18  2  1  0  0  0  0
 18 23  2  0  0  0  0
 19  1  1  0  0  0  0
 19 18  1  0  0  0  0
 20 19  2  0  0  0  0
 21  3  1  0  0  0  0
 21 20  1  0  0  0  0
 22 21  2  0  0  0  0
 22 23  1  0  0  0  0
M  END
>  <CHROM.1>
179.47997325,62.18533672,-163.09028198,177.89018217,44.72080234,94.91500650
-142.46134447,150.32296946,-132.53649628,115.02292685,-77.94762299,-12.23597730
0.47874191,2.36364007,-2.78671960,0.35085631,-0.85638341

>  <Name>
1uui_lig

>  <RI>
0

>  <Rbt.Current_Directory>
/home/itssahil/PROJECTS/Mol_Feturizer/New_Systems/rnas/1uui

>  <Rbt.Executable>
rbdock ($Id: //depot/dev/client3/rdock/2013.1/src/exe/rbdock.cxx#4 $)

>  <Rbt.Library>
libRbt.so (2013.1, Build901 2013/11/27)

>  <Rbt.Parameter_File>
/export/apps/rDock/src/rDock_2013.1_src/data/scripts/dock_solv.prm

>  <Rbt.Receptor>
prm/pocket_docking_4.prm

>  <SCORE>
-26.2499

>  <SCORE.INTER>
-19.74

>  <SCORE.INTER.CONST>
1

>  <SCORE.INTER.POLAR>
-3.16175

>  <SCORE.INTER.ROT>
10

>  <SCORE.INTER.SOLV>
6.55886

>  <SCORE.INTER.VDW>
-15.0738

>  <SCORE.INTER.norm>
-0.85826

>  <SCORE.INTRA>
-6.67452

>  <SCORE.INTRA.DIHEDRAL>
-10.6247

>  <SCORE.INTRA.DIHEDRAL.0>
23.4151

>  <SCORE.INTRA.POLAR>
0

>  <SCORE.INTRA.POLAR.0>
0

>  <SCORE.INTRA.REPUL>
0

>  <SCORE.INTRA.REPUL.0>
0

>  <SCORE.INTRA.SOLV>
0.0147252

>  <SCORE.INTRA.SOLV.lig_0>
-17.3568

>  <SCORE.INTRA.VDW>
-1.36955

>  <SCORE.INTRA.VDW.0>
1.0768

>  <SCORE.INTRA.norm>
-0.290197

>  <SCORE.RESTR>
0.164612

>  <SCORE.RESTR.CAVITY>
0.164612

>  <SCORE.RESTR.norm>
0.00715704

>  <SCORE.SYSTEM>
0

>  <SCORE.SYSTEM.CONST>
0

>  <SCORE.SYSTEM.DIHEDRAL>
0

>  <SCORE.SYSTEM.SOLV>
0

>  <SCORE.SYSTEM.norm>
0

>  <SCORE.heavy>
23

>  <SCORE.norm>
-1.1413

>  <RMSD>
2.738

$$$$
1uui_lig
 OpenBabel11021811413D
libRbt.so/2013.1/901 2013/11/27
 23 24  0  0  0  0  0  0  0  0999 V2000
  -12.0677    0.5908    1.2579 C   0  0  0  0  0  0  0  0  0  0  0  0
   -9.4398   -0.6403    1.0843 O   0  0  0  0  0  0  0  0  0  0  0  0
  -10.9475    3.0136   -3.0242 O   0  0  0  0  0  0  0  0  0  0  0  0
   -8.3560   -0.1007    1.8512 C   0  0  0  0  0  0  0  0  0  0  0  0
  -10.4427    4.3155   -2.7172 C   0  0  0  0  0  0  0  0  0  0  0  0
  -13.0113    1.7379    1.4656 N   0  0  0  0  0  0  0  0  0  0  0  0
   -7.0361   -0.4330    1.1536 C   0  0  0  0  0  0  0  0  0  0  0  0
  -13.5291    1.7649    2.8605 C   0  0  0  0  0  0  0  0  0  0  0  0
  -14.1520    1.6662    0.5147 C   0  0  0  0  0  0  0  0  0  0  0  0
   -6.7460   -1.9329    1.2689 C   0  0  0  0  0  0  0  0  0  0  0  0
  -14.3099    0.4863    3.2089 C   0  0  0  0  0  0  0  0  0  0  0  0
  -14.9494    0.3616    0.6827 C   0  0  0  0  0  0  0  0  0  0  0  0
   -7.7239   -2.6890    0.4550 N   0  0  0  0  0  0  0  0  0  0  0  0
  -14.6638   -0.3070    1.9903 N   0  0  0  0  0  0  0  0  0  0  0  0
  -14.9775   -1.6711    2.1365 C   0  0  0  0  0  0  0  0  0  0  0  0
  -15.0115   -2.2502    3.3703 N   0  0  0  0  0  0  0  0  0  0  0  0
  -15.1217   -2.4732    1.0431 N   0  0  0  0  0  0  0  0  0  0  0  0
   -9.8188    0.2798    0.0566 C   0  0  0  0  0  0  0  0  0  0  0  0
  -11.0943    0.9062    0.0985 C   0  0  0  0  0  0  0  0  0  0  0  0
  -11.4686    1.8171   -0.9282 C   0  0  0  0  0  0  0  0  0  0  0  0
  -10.5688    2.0989   -1.9918 C   0  0  0  0  0  0  0  0  0  0  0  0
   -9.2953    1.4727   -2.0302 C   0  0  0  0  0  0  0  0  0  0  0  0
   -8.9211    0.5626   -1.0067 C   0  0  0  0  0  0  0  0  0  0  0  0
  2  4  1  0  0  0  0
  3  5  1  0  0  0  0
  4  7  1  0  0  0  0
  6  1  1  0  0  0  0
  7 10  1  0  0  0  0
  8  6  1  0  0  0  0
  8 11  1  0  0  0  0
  9  6  1  0  0  0  0
 10 13  1  0  0  0  0
 11 14  1  0  0  0  0
 12  9  1  0  0  0  0
 14 12  1  0  0  0  0
 14 15  1  0  0  0  0
 15 16  1  0  0  0  0
 15 17  1  0  0  0  0
 18  2  1  0  0  0  0
 18 23  2  0  0  0  0
 19  1  1  0  0  0  0
 19 18  1  0  0  0  0
 20 19  2  0  0  0  0
 21  3  1  0  0  0  0
 21 20  1  0  0  0  0
 22 21  2  0  0  0  0
 22 23  1  0  0  0  0
M  END
>  <CHROM.1>
-85.39652215,-70.47543374,-155.04683676,68.65118035,59.96308792,2.59434230
162.27728433,-42.69089788,-113.58616622,154.37562152,95.38321597,-11.48146441
0.31981969,0.58213284,2.75946129,-0.22136683,2.44942934

>  <Name>
1uui_lig

>  <RI>
0

>  <Rbt.Current_Directory>
/home/itssahil/PROJECTS/Mol_Feturizer/New_Systems/rnas/1uui

>  <Rbt.Executable>
rbdock ($Id: //depot/dev/client3/rdock/2013.1/src/exe/rbdock.cxx#4 $)

>  <Rbt.Library>
libRbt.so (2013.1, Build901 2013/11/27)

>  <Rbt.Parameter_File>
/export/apps/rDock/src/rDock_2013.1_src/data/scripts/dock_solv.prm

>  <Rbt.Receptor>
prm/pocket_docking_4.prm

>  <SCORE>
-18.8244

>  <SCORE.INTER>
-14.6401

>  <SCORE.INTER.CONST>
1

>  <SCORE.INTER.POLAR>
-2.60033

>  <SCORE.INTER.ROT>
10

>  <SCORE.INTER.SOLV>
6.21973

>  <SCORE.INTER.VDW>
-13.4322

>  <SCORE.INTER.norm>
-0.636524

>  <SCORE.INTRA>
-4.18431

>  <SCORE.INTRA.DIHEDRAL>
-5.68028

>  <SCORE.INTRA.DIHEDRAL.0>
23.4151

>  <SCORE.INTRA.POLAR>
-0.489966

>  <SCORE.INTRA.POLAR.0>
0

>  <SCORE.INTRA.REPUL>
0

>  <SCORE.INTRA.REPUL.0>
0

>  <SCORE.INTRA.SOLV>
0.611363

>  <SCORE.INTRA.SOLV.lig_0>
-17.3568

>  <SCORE.INTRA.VDW>
0.0160308

>  <SCORE.INTRA.VDW.0>
1.0768

>  <SCORE.INTRA.norm>
-0.181927

>  <SCORE.RESTR>
0

>  <SCORE.RESTR.CAVITY>
0

>  <SCORE.RESTR.norm>
0

>  <SCORE.SYSTEM>
0

>  <SCORE.SYSTEM.CONST>
0

>  <SCORE.SYSTEM.DIHEDRAL>
0

>  <SCORE.SYSTEM.SOLV>
0

>  <SCORE.SYSTEM.norm>
0

>  <SCORE.heavy>
23

>  <SCORE.norm>
-0.81845

>  <RMSD>
2.860

$$$$
1uui_lig
 OpenBabel11021811413D
libRbt.so/2013.1/901 2013/11/27
 23 24  0  0  0  0  0  0  0  0999 V2000
  -12.5467   -0.3181    2.7815 C   0  0  0  0  0  0  0  0  0  0  0  0
   -9.9933    0.4409    1.6173 O   0  0  0  0  0  0  0  0  0  0  0  0
  -14.3388   -0.5847   -1.9280 O   0  0  0  0  0  0  0  0  0  0  0  0
   -8.8334   -0.2832    1.1878 C   0  0  0  0  0  0  0  0  0  0  0  0
  -14.8149    0.6487   -2.4721 C   0  0  0  0  0  0  0  0  0  0  0  0
  -12.1817    0.9694    3.4587 N   0  0  0  0  0  0  0  0  0  0  0  0
   -7.6862   -0.0129    2.1625 C   0  0  0  0  0  0  0  0  0  0  0  0
  -12.0699    0.7913    4.9320 C   0  0  0  0  0  0  0  0  0  0  0  0
  -13.1825    2.0281    3.1619 C   0  0  0  0  0  0  0  0  0  0  0  0
   -7.3757    1.4867    2.2029 C   0  0  0  0  0  0  0  0  0  0  0  0
  -13.3965    0.3276    5.5574 C   0  0  0  0  0  0  0  0  0  0  0  0
  -14.5899    1.6271    3.6356 C   0  0  0  0  0  0  0  0  0  0  0  0
   -6.8845    1.9253    0.8774 N   0  0  0  0  0  0  0  0  0  0  0  0
  -14.5516    0.5031    4.6223 N   0  0  0  0  0  0  0  0  0  0  0  0
  -15.7236   -0.2435    4.8446 C   0  0  0  0  0  0  0  0  0  0  0  0
  -16.2673   -0.3327    6.0917 N   0  0  0  0  0  0  0  0  0  0  0  0
  -16.2651   -1.0020    3.8491 N   0  0  0  0  0  0  0  0  0  0  0  0
  -11.0861    0.1868    0.7299 C   0  0  0  0  0  0  0  0  0  0  0  0
  -12.3539   -0.1880    1.2528 C   0  0  0  0  0  0  0  0  0  0  0  0
  -13.4365   -0.4440    0.3661 C   0  0  0  0  0  0  0  0  0  0  0  0
  -13.2495   -0.3250   -1.0379 C   0  0  0  0  0  0  0  0  0  0  0  0
  -11.9827    0.0506   -1.5569 C   0  0  0  0  0  0  0  0  0  0  0  0
  -10.9012    0.3053   -0.6730 C   0  0  0  0  0  0  0  0  0  0  0  0
  2  4  1  0  0  0  0
  3  5  1  0  0  0  0
  4  7  1  0  0  0  0
  6  1  1  0  0  0  0
  7 10  1  0  0  0  0
  8  6  1  0  0  0  0
  8 11  1  0  0  0  0
  9  6  1  0  0  0  0
 10 13  1  0  0  0  0
 11 14  1  0  0  0  0
 12  9  1  0  0  0  0
 14 12  1  0  0  0  0
 14 15  1  0  0  0  0
 15 16  1  0  0  0  0
 15 17  1  0  0  0  0
 18  2  1  0  0  0  0
 18 23  2  0  0  0  0
 19  1  1  0  0  0  0
 19 18  1  0  0  0  0
 20 19  2  0  0  0  0
 21  3  1  0  0  0  0
 21 20  1  0  0  0  0
 22 21  2  0  0  0  0
 22 23  1  0  0  0  0
M  END
>  <CHROM.1>
-179.14576015,-59.54735531,-167.60561037,-64.34902092,-53.67785451,46.54717221
173.62613758,120.70337207,130.40909577,56.63542112,106.91559275,-12.33037412
0.34236089,2.01931523,-2.60425409,-0.15289958,-1.65294473

>  <Name>
1uui_lig

>  <RI>
0

>  <Rbt.Current_Directory>
/home/itssahil/PROJECTS/Mol_Feturizer/New_Systems/rnas/1uui

>  <Rbt.Executable>
rbdock ($Id: //depot/dev/client3/rdock/2013.1/src/exe/rbdock.cxx#4 $)

>  <Rbt.Library>
libRbt.so (2013.1, Build901 2013/11/27)

>  <Rbt.Parameter_File>
/export/apps/rDock/src/rDock_2013.1_src/data/scripts/dock_solv.prm

>  <Rbt.Receptor>
prm/pocket_docking_4.prm

>  <SCORE>
-20.1533

>  <SCORE.INTER>
-10.9647

>  <SCORE.INTER.CONST>
1

>  <SCORE.INTER.POLAR>
-1.69729

>  <SCORE.INTER.ROT>
10

>  <SCORE.INTER.SOLV>
4.4987

>  <SCORE.INTER.VDW>
-13.4184

>  <SCORE.INTER.norm>
-0.476726

>  <SCORE.INTRA>
-9.3601

>  <SCORE.INTRA.DIHEDRAL>
-11.4802

>  <SCORE.INTRA.DIHEDRAL.0>
23.4151

>  <SCORE.INTRA.POLAR>
-0.617196

>  <SCORE.INTRA.POLAR.0>
0

>  <SCORE.INTRA.REPUL>
0

>  <SCORE.INTRA.REPUL.0>
0

>  <SCORE.INTRA.SOLV>
0.541308

>  <SCORE.INTRA.SOLV.lig_0>
-17.3568

>  <SCORE.INTRA.VDW>
-1.79217

>  <SCORE.INTRA.VDW.0>
1.0768

>  <SCORE.INTRA.norm>
-0.406961

>  <SCORE.RESTR>
0.171547

>  <SCORE.RESTR.CAVITY>
0.171547

>  <SCORE.RESTR.norm>
0.00745857

>  <SCORE.SYSTEM>
0

>  <SCORE.SYSTEM.CONST>
0

>  <SCORE.SYSTEM.DIHEDRAL>
0

>  <SCORE.SYSTEM.SOLV>
0

>  <SCORE.SYSTEM.norm>
0

>  <SCORE.heavy>
23

>  <SCORE.norm>
-0.876228

>  <RMSD>
2.915

$$$$
1uui_lig
 OpenBabel11021811413D
libRbt.so/2013.1/901 2013/11/27
 23 24  0  0  0  0  0  0  0  0999 V2000
  -11.5355   -0.0573    1.4135 C   0  0  0  0  0  0  0  0  0  0  0  0
   -8.8329   -0.9171    2.0522 O   0  0  0  0  0  0  0  0  0  0  0  0
   -9.7010    4.6304    1.0647 O   0  0  0  0  0  0  0  0  0  0  0  0
   -7.8357   -1.4210    1.1547 C   0  0  0  0  0  0  0  0  0  0  0  0
  -10.3038    5.2334    2.2123 C   0  0  0  0  0  0  0  0  0  0  0  0
  -12.4885    0.1789    2.5473 N   0  0  0  0  0  0  0  0  0  0  0  0
   -6.4548   -0.9831    1.6450 C   0  0  0  0  0  0  0  0  0  0  0  0
  -13.2450   -1.0579    2.8828 C   0  0  0  0  0  0  0  0  0  0  0  0
  -13.4431    1.2707    2.2201 C   0  0  0  0  0  0  0  0  0  0  0  0
   -5.3647   -1.7738    0.9145 C   0  0  0  0  0  0  0  0  0  0  0  0
  -14.0892   -1.5551    1.6970 C   0  0  0  0  0  0  0  0  0  0  0  0
  -14.2719    0.9427    0.9664 C   0  0  0  0  0  0  0  0  0  0  0  0
   -5.2885   -3.1421    1.4736 N   0  0  0  0  0  0  0  0  0  0  0  0
  -14.2300   -0.5146    0.6307 N   0  0  0  0  0  0  0  0  0  0  0  0
  -14.5795   -0.9203   -0.6708 C   0  0  0  0  0  0  0  0  0  0  0  0
  -13.9024   -0.4450   -1.7546 N   0  0  0  0  0  0  0  0  0  0  0  0
  -15.6845   -1.6896   -0.8870 N   0  0  0  0  0  0  0  0  0  0  0  0
   -9.0538    0.4749    1.8078 C   0  0  0  0  0  0  0  0  0  0  0  0
  -10.3585    0.9425    1.4911 C   0  0  0  0  0  0  0  0  0  0  0  0
  -10.5725    2.3272    1.2444 C   0  0  0  0  0  0  0  0  0  0  0  0
   -9.4843    3.2388    1.3148 C   0  0  0  0  0  0  0  0  0  0  0  0
   -8.1829    2.7689    1.6326 C   0  0  0  0  0  0  0  0  0  0  0  0
   -7.9679    1.3871    1.8779 C   0  0  0  0  0  0  0  0  0  0  0  0
  2  4  1  0  0  0  0
  3  5  1  0  0  0  0
  4  7  1  0  0  0  0
  6  1  1  0  0  0  0
  7 10  1  0  0  0  0
  8  6  1  0  0  0  0
  8 11  1  0  0  0  0
  9  6  1  0  0  0  0
 10 13  1  0  0  0  0
 11 14  1  0  0  0  0
 12  9  1  0  0  0  0
 14 12  1  0  0  0  0
 14 15  1  0  0  0  0
 15 16  1  0  0  0  0
 15 17  1  0  0  0  0
 18  2  1  0  0  0  0
 18 23  2  0  0  0  0
 19  1  1  0  0  0  0
 19 18  1  0  0  0  0
 20 19  2  0  0  0  0
 21  3  1  0  0  0  0
 21 20  1  0  0  0  0
 22 21  2  0  0  0  0
 22 23  1  0  0  0  0
M  END
>  <CHROM.1>
77.22215476,166.45307814,-154.27358683,-76.20848035,-149.81599563,-133.21879432
-47.84385754,-18.40702155,123.01915748,111.26729483,77.32791803,-10.74372157
0.33283302,1.23743795,-3.11313829,-0.14451640,0.14521775

>  <Name>
1uui_lig

>  <RI>
0

>  <Rbt.Current_Directory>
/home/itssahil/PROJECTS/Mol_Feturizer/New_Systems/rnas/1uui

>  <Rbt.Executable>
rbdock ($Id: //depot/dev/client3/rdock/2013.1/src/exe/rbdock.cxx#4 $)

>  <Rbt.Library>
libRbt.so (2013.1, Build901 2013/11/27)

>  <Rbt.Parameter_File>
/export/apps/rDock/src/rDock_2013.1_src/data/scripts/dock_solv.prm

>  <Rbt.Receptor>
prm/pocket_docking_5.prm

>  <SCORE>
-18.8413

>  <SCORE.INTER>
-16.4392

>  <SCORE.INTER.CONST>
1

>  <SCORE.INTER.POLAR>
-2.71416

>  <SCORE.INTER.ROT>
10

>  <SCORE.INTER.SOLV>
5.74749

>  <SCORE.INTER.VDW>
-14.0947

>  <SCORE.INTER.norm>
-0.714746

>  <SCORE.INTRA>
-2.40213

>  <SCORE.INTRA.DIHEDRAL>
-5.02089

>  <SCORE.INTRA.DIHEDRAL.0>
23.4151

>  <SCORE.INTRA.POLAR>
0

>  <SCORE.INTRA.POLAR.0>
0

>  <SCORE.INTRA.REPUL>
0

>  <SCORE.INTRA.REPUL.0>
0

>  <SCORE.INTRA.SOLV>
0.0476507

>  <SCORE.INTRA.SOLV.lig_0>
-17.3568

>  <SCORE.INTRA.VDW>
0.084493

>  <SCORE.INTRA.VDW.0>
1.0768

>  <SCORE.INTRA.norm>
-0.10444

>  <SCORE.RESTR>
0

>  <SCORE.RESTR.CAVITY>
0

>  <SCORE.RESTR.norm>
0

>  <SCORE.SYSTEM>
0

>  <SCORE.SYSTEM.CONST>
0

>  <SCORE.SYSTEM.DIHEDRAL>
0

>  <SCORE.SYSTEM.SOLV>
0

>  <SCORE.SYSTEM.norm>
0

>  <SCORE.heavy>
23

>  <SCORE.norm>
-0.819186

>  <RMSD>
3.820

$$$$
1uui_lig
 OpenBabel11021811413D
libRbt.so/2013.1/901 2013/11/27
 23 24  0  0  0  0  0  0  0  0999 V2000
  -10.8362    2.9355    2.1873 C   0  0  0  0  0  0  0  0  0  0  0  0
   -8.9497    0.9230    1.2694 O   0  0  0  0  0  0  0  0  0  0  0  0
  -14.0659    1.1202   -1.2383 O   0  0  0  0  0  0  0  0  0  0  0  0
   -8.1481   -0.0998    0.6649 C   0  0  0  0  0  0  0  0  0  0  0  0
  -14.9130    0.1193   -0.6685 C   0  0  0  0  0  0  0  0  0  0  0  0
  -10.9128    4.3451    1.6808 N   0  0  0  0  0  0  0  0  0  0  0  0
   -6.8328   -0.2247    1.4354 C   0  0  0  0  0  0  0  0  0  0  0  0
   -9.5925    5.0251    1.7762 C   0  0  0  0  0  0  0  0  0  0  0  0
  -11.9283    5.1262    2.4351 C   0  0  0  0  0  0  0  0  0  0  0  0
   -6.0601   -1.4576    0.9559 C   0  0  0  0  0  0  0  0  0  0  0  0
   -9.0916    5.1076    3.2281 C   0  0  0  0  0  0  0  0  0  0  0  0
  -11.6012    5.1806    3.9372 C   0  0  0  0  0  0  0  0  0  0  0  0
   -6.7725   -2.6832    1.3812 N   0  0  0  0  0  0  0  0  0  0  0  0
  -10.1774    4.8154    4.2157 N   0  0  0  0  0  0  0  0  0  0  0  0
   -9.8208    4.4248    5.5199 C   0  0  0  0  0  0  0  0  0  0  0  0
   -8.5941    4.7327    6.0290 N   0  0  0  0  0  0  0  0  0  0  0  0
  -10.6389    3.6164    6.2526 N   0  0  0  0  0  0  0  0  0  0  0  0
  -10.2326    0.9769    0.6391 C   0  0  0  0  0  0  0  0  0  0  0  0
  -11.1887    1.9436    1.0546 C   0  0  0  0  0  0  0  0  0  0  0  0
  -12.4649    1.9904    0.4278 C   0  0  0  0  0  0  0  0  0  0  0  0
  -12.7815    1.0728   -0.6105 C   0  0  0  0  0  0  0  0  0  0  0  0
  -11.8243    0.1095   -1.0241 C   0  0  0  0  0  0  0  0  0  0  0  0
  -10.5507    0.0612   -0.3985 C   0  0  0  0  0  0  0  0  0  0  0  0
  2  4  1  0  0  0  0
  3  5  1  0  0  0  0
  4  7  1  0  0  0  0
  6  1  1  0  0  0  0
  7 10  1  0  0  0  0
  8  6  1  0  0  0  0
  8 11  1  0  0  0  0
  9  6  1  0  0  0  0
 10 13  1  0  0  0  0
 11 14  1  0  0  0  0
 12  9  1  0  0  0  0
 14 12  1  0  0  0  0
 14 15  1  0  0  0  0
 15 16  1  0  0  0  0
 15 17  1  0  0  0  0
 18  2  1  0  0  0  0
 18 23  2  0  0  0  0
 19  1  1  0  0  0  0
 19 18  1  0  0  0  0
 20 19  2  0  0  0  0
 21  3  1  0  0  0  0
 21 20  1  0  0  0  0
 22 21  2  0  0  0  0
 22 23  1  0  0  0  0
M  END
>  <CHROM.1>
-174.91214301,170.79166091,-118.50178149,-69.13086105,175.83308170,22.25996118
-52.31390089,39.79546322,-178.47120468,119.70719285,-98.87895556,-10.30665005
2.12187791,1.84441192,1.56682819,-0.45070735,0.71113817

>  <Name>
1uui_lig

>  <RI>
0

>  <Rbt.Current_Directory>
/home/itssahil/PROJECTS/Mol_Feturizer/New_Systems/rnas/1uui

>  <Rbt.Executable>
rbdock ($Id: //depot/dev/client3/rdock/2013.1/src/exe/rbdock.cxx#4 $)

>  <Rbt.Library>
libRbt.so (2013.1, Build901 2013/11/27)

>  <Rbt.Parameter_File>
/export/apps/rDock/src/rDock_2013.1_src/data/scripts/dock_solv.prm

>  <Rbt.Receptor>
prm/pocket_docking_6.prm

>  <SCORE>
-18.8757

>  <SCORE.INTER>
-16.0993

>  <SCORE.INTER.CONST>
1

>  <SCORE.INTER.POLAR>
-2.7717

>  <SCORE.INTER.ROT>
10

>  <SCORE.INTER.SOLV>
4.68642

>  <SCORE.INTER.VDW>
-13.3227

>  <SCORE.INTER.norm>
-0.699969

>  <SCORE.INTRA>
-2.77644

>  <SCORE.INTRA.DIHEDRAL>
-10.119

>  <SCORE.INTRA.DIHEDRAL.0>
23.4151

>  <SCORE.INTRA.POLAR>
0

>  <SCORE.INTRA.POLAR.0>
0

>  <SCORE.INTRA.REPUL>
0

>  <SCORE.INTRA.REPUL.0>
0

>  <SCORE.INTRA.SOLV>
0.0646523

>  <SCORE.INTRA.SOLV.lig_0>
-17.3568

>  <SCORE.INTRA.VDW>
2.25075

>  <SCORE.INTRA.VDW.0>
1.0768

>  <SCORE.INTRA.norm>
-0.120715

>  <SCORE.RESTR>
0

>  <SCORE.RESTR.CAVITY>
0

>  <SCORE.RESTR.norm>
0

>  <SCORE.SYSTEM>
0

>  <SCORE.SYSTEM.CONST>
0

>  <SCORE.SYSTEM.DIHEDRAL>
0

>  <SCORE.SYSTEM.SOLV>
0

>  <SCORE.SYSTEM.norm>
0

>  <SCORE.heavy>
23

>  <SCORE.norm>
-0.820684

>  <RMSD>
3.826

$$$$
1uui_lig
 OpenBabel11021811413D
libRbt.so/2013.1/901 2013/11/27
 23 24  0  0  0  0  0  0  0  0999 V2000
  -14.1614    1.5011    2.3017 C   0  0  0  0  0  0  0  0  0  0  0  0
  -11.7348    2.9432    2.9969 O   0  0  0  0  0  0  0  0  0  0  0  0
  -14.3800    4.3593   -1.8510 O   0  0  0  0  0  0  0  0  0  0  0  0
  -11.5065    4.1128    3.7931 C   0  0  0  0  0  0  0  0  0  0  0  0
  -13.9727    3.4680   -2.8921 C   0  0  0  0  0  0  0  0  0  0  0  0
  -14.2738    0.2226    1.5257 N   0  0  0  0  0  0  0  0  0  0  0  0
  -10.7474    3.7148    5.0598 C   0  0  0  0  0  0  0  0  0  0  0  0
  -15.3700   -0.6344    2.0537 C   0  0  0  0  0  0  0  0  0  0  0  0
  -12.9939   -0.5332    1.5588 C   0  0  0  0  0  0  0  0  0  0  0  0
  -10.2714    4.9684    5.8007 C   0  0  0  0  0  0  0  0  0  0  0  0
  -15.1337   -1.0314    3.5208 C   0  0  0  0  0  0  0  0  0  0  0  0
  -12.5818   -0.8881    2.9977 C   0  0  0  0  0  0  0  0  0  0  0  0
   -9.4684    4.5708    6.9788 N   0  0  0  0  0  0  0  0  0  0  0  0
  -13.7255   -0.7703    3.9550 N   0  0  0  0  0  0  0  0  0  0  0  0
  -13.4491   -0.6608    5.3305 C   0  0  0  0  0  0  0  0  0  0  0  0
  -13.8945    0.4095    6.0481 N   0  0  0  0  0  0  0  0  0  0  0  0
  -12.6188   -1.5500    5.9466 N   0  0  0  0  0  0  0  0  0  0  0  0
  -12.4023    3.2994    1.7829 C   0  0  0  0  0  0  0  0  0  0  0  0
  -13.5922    2.6216    1.4008 C   0  0  0  0  0  0  0  0  0  0  0  0
  -14.2501    2.9762    0.1904 C   0  0  0  0  0  0  0  0  0  0  0  0
  -13.7181    4.0053   -0.6333 C   0  0  0  0  0  0  0  0  0  0  0  0
  -12.5306    4.6812   -0.2483 C   0  0  0  0  0  0  0  0  0  0  0  0
  -11.8725    4.3274    0.9589 C   0  0  0  0  0  0  0  0  0  0  0  0
  2  4  1  0  0  0  0
  3  5  1  0  0  0  0
  4  7  1  0  0  0  0
  6  1  1  0  0  0  0
  7 10  1  0  0  0  0
  8  6  1  0  0  0  0
  8 11  1  0  0  0  0
  9  6  1  0  0  0  0
 10 13  1  0  0  0  0
 11 14  1  0  0  0  0
 12  9  1  0  0  0  0
 14 12  1  0  0  0  0
 14 15  1  0  0  0  0
 15 16  1  0  0  0  0
 15 17  1  0  0  0  0
 18  2  1  0  0  0  0
 18 23  2  0  0  0  0
 19  1  1  0  0  0  0
 19 18  1  0  0  0  0
 20 19  2  0  0  0  0
 21  3  1  0  0  0  0
 21 20  1  0  0  0  0
 22 21  2  0  0  0  0
 22 23  1  0  0  0  0
M  END
>  <CHROM.1>
-177.94020136,169.84056961,-151.68782342,-176.57599179,168.25327776,-69.46086562
-69.72103717,85.62686893,-127.95693611,-122.46241878,-83.71227389,-12.95624865
1.98211748,2.63230202,1.94105457,-0.95466052,-0.88025843

>  <Name>
1uui_lig

>  <RI>
0

>  <Rbt.Current_Directory>
/home/itssahil/PROJECTS/Mol_Feturizer/New_Systems/rnas/1uui

>  <Rbt.Executable>
rbdock ($Id: //depot/dev/client3/rdock/2013.1/src/exe/rbdock.cxx#4 $)

>  <Rbt.Library>
libRbt.so (2013.1, Build901 2013/11/27)

>  <Rbt.Parameter_File>
/export/apps/rDock/src/rDock_2013.1_src/data/scripts/dock_solv.prm

>  <Rbt.Receptor>
prm/pocket_docking_5.prm

>  <SCORE>
-15.7734

>  <SCORE.INTER>
-9.27172

>  <SCORE.INTER.CONST>
1

>  <SCORE.INTER.POLAR>
-1.92428

>  <SCORE.INTER.ROT>
10

>  <SCORE.INTER.SOLV>
6.51882

>  <SCORE.INTER.VDW>
-12.2065

>  <SCORE.INTER.norm>
-0.403118

>  <SCORE.INTRA>
-6.50169

>  <SCORE.INTRA.DIHEDRAL>
-9.05905

>  <SCORE.INTRA.DIHEDRAL.0>
23.4151

>  <SCORE.INTRA.POLAR>
0

>  <SCORE.INTRA.POLAR.0>
0

>  <SCORE.INTRA.REPUL>
0.0732022

>  <SCORE.INTRA.REPUL.0>
0

>  <SCORE.INTRA.SOLV>
-0.0208184

>  <SCORE.INTRA.SOLV.lig_0>
-17.3568

>  <SCORE.INTRA.VDW>
-2.32777

>  <SCORE.INTRA.VDW.0>
1.0768

>  <SCORE.INTRA.norm>
-0.282682

>  <SCORE.RESTR>
0

>  <SCORE.RESTR.CAVITY>
0

>  <SCORE.RESTR.norm>
0

>  <SCORE.SYSTEM>
0

>  <SCORE.SYSTEM.CONST>
0

>  <SCORE.SYSTEM.DIHEDRAL>
0

>  <SCORE.SYSTEM.SOLV>
0

>  <SCORE.SYSTEM.norm>
0

>  <SCORE.heavy>
23

>  <SCORE.norm>
-0.6858

>  <RMSD>
4.201

$$$$
1uui_lig
 OpenBabel11021811413D
libRbt.so/2013.1/901 2013/11/27
 23 24  0  0  0  0  0  0  0  0999 V2000
  -10.5988    0.2159    1.5368 C   0  0  0  0  0  0  0  0  0  0  0  0
   -8.1333   -1.1844    2.1783 O   0  0  0  0  0  0  0  0  0  0  0  0
   -8.2286    4.4786    2.8305 O   0  0  0  0  0  0  0  0  0  0  0  0
   -7.7419   -1.5143    0.8396 C   0  0  0  0  0  0  0  0  0  0  0  0
   -8.4597    4.7993    4.2045 C   0  0  0  0  0  0  0  0  0  0  0  0
  -11.6116    0.1040    2.6373 N   0  0  0  0  0  0  0  0  0  0  0  0
   -6.8038   -2.7217    0.8763 C   0  0  0  0  0  0  0  0  0  0  0  0
  -12.6012   -0.9703    2.3526 C   0  0  0  0  0  0  0  0  0  0  0  0
  -12.3238    1.3938    2.8370 C   0  0  0  0  0  0  0  0  0  0  0  0
   -5.4169   -2.2925    1.3657 C   0  0  0  0  0  0  0  0  0  0  0  0
  -13.3878   -0.6996    1.0588 C   0  0  0  0  0  0  0  0  0  0  0  0
  -13.0589    1.8393    1.5613 C   0  0  0  0  0  0  0  0  0  0  0  0
   -4.5144   -3.4655    1.3828 N   0  0  0  0  0  0  0  0  0  0  0  0
  -13.2333    0.7137    0.5913 N   0  0  0  0  0  0  0  0  0  0  0  0
  -13.5074    1.0163   -0.7555 C   0  0  0  0  0  0  0  0  0  0  0  0
  -14.6631    1.6488   -1.1066 N   0  0  0  0  0  0  0  0  0  0  0  0
  -12.6904    0.5662   -1.7502 N   0  0  0  0  0  0  0  0  0  0  0  0
   -8.1608    0.2361    2.3448 C   0  0  0  0  0  0  0  0  0  0  0  0
   -9.3439    0.9643    2.0431 C   0  0  0  0  0  0  0  0  0  0  0  0
   -9.3651    2.3774    2.2060 C   0  0  0  0  0  0  0  0  0  0  0  0
   -8.2061    3.0575    2.6691 C   0  0  0  0  0  0  0  0  0  0  0  0
   -7.0265    2.3274    2.9707 C   0  0  0  0  0  0  0  0  0  0  0  0
   -7.0039    0.9172    2.8075 C   0  0  0  0  0  0  0  0  0  0  0  0
  2  4  1  0  0  0  0
  3  5  1  0  0  0  0
  4  7  1  0  0  0  0
  6  1  1  0  0  0  0
  7 10  1  0  0  0  0
  8  6  1  0  0  0  0
  8 11  1  0  0  0  0
  9  6  1  0  0  0  0
 10 13  1  0  0  0  0
 11 14  1  0  0  0  0
 12  9  1  0  0  0  0
 14 12  1  0  0  0  0
 14 15  1  0  0  0  0
 15 16  1  0  0  0  0
 15 17  1  0  0  0  0
 18  2  1  0  0  0  0
 18 23  2  0  0  0  0
 19  1  1  0  0  0  0
 19 18  1  0  0  0  0
 20 19  2  0  0  0  0
 21  3  1  0  0  0  0
 21 20  1  0  0  0  0
 22 21  2  0  0  0  0
 22 23  1  0  0  0  0
M  END
>  <CHROM.1>
140.07630676,-75.17065907,-160.90964535,-179.38237988,149.59552151,104.19163877
-21.73972317,-92.56278222,88.28849188,104.00401290,98.58393377,-9.83690353
0.56201227,1.60432005,2.97111087,-0.30468176,0.41971053

>  <Name>
1uui_lig

>  <RI>
0

>  <Rbt.Current_Directory>
/home/itssahil/PROJECTS/Mol_Feturizer/New_Systems/rnas/1uui

>  <Rbt.Executable>
rbdock ($Id: //depot/dev/client3/rdock/2013.1/src/exe/rbdock.cxx#4 $)

>  <Rbt.Library>
libRbt.so (2013.1, Build901 2013/11/27)

>  <Rbt.Parameter_File>
/export/apps/rDock/src/rDock_2013.1_src/data/scripts/dock_solv.prm

>  <Rbt.Receptor>
prm/pocket_docking_6.prm

>  <SCORE>
-23.5167

>  <SCORE.INTER>
-20.0732

>  <SCORE.INTER.CONST>
1

>  <SCORE.INTER.POLAR>
-2.54655

>  <SCORE.INTER.ROT>
10

>  <SCORE.INTER.SOLV>
4.8715

>  <SCORE.INTER.VDW>
-16.7841

>  <SCORE.INTER.norm>
-0.872749

>  <SCORE.INTRA>
-3.44346

>  <SCORE.INTRA.DIHEDRAL>
-0.749518

>  <SCORE.INTRA.DIHEDRAL.0>
23.4151

>  <SCORE.INTRA.POLAR>
0

>  <SCORE.INTRA.POLAR.0>
0

>  <SCORE.INTRA.REPUL>
0

>  <SCORE.INTRA.REPUL.0>
0

>  <SCORE.INTRA.SOLV>
0.0184224

>  <SCORE.INTRA.SOLV.lig_0>
-17.3568

>  <SCORE.INTRA.VDW>
-3.07791

>  <SCORE.INTRA.VDW.0>
1.0768

>  <SCORE.INTRA.norm>
-0.149715

>  <SCORE.RESTR>
0

>  <SCORE.RESTR.CAVITY>
0

>  <SCORE.RESTR.norm>
0

>  <SCORE.SYSTEM>
0

>  <SCORE.SYSTEM.CONST>
0

>  <SCORE.SYSTEM.DIHEDRAL>
0

>  <SCORE.SYSTEM.SOLV>
0

>  <SCORE.SYSTEM.norm>
0

>  <SCORE.heavy>
23

>  <SCORE.norm>
-1.02246

>  <RMSD>
4.317

$$$$
1uui_lig
 OpenBabel11021811413D
libRbt.so/2013.1/901 2013/11/27
 23 24  0  0  0  0  0  0  0  0999 V2000
  -11.6818    0.6314    1.8610 C   0  0  0  0  0  0  0  0  0  0  0  0
  -11.5568    0.9449   -1.0265 O   0  0  0  0  0  0  0  0  0  0  0  0
   -7.2298   -1.7240    1.5538 O   0  0  0  0  0  0  0  0  0  0  0  0
  -11.1495    1.3902   -2.3264 C   0  0  0  0  0  0  0  0  0  0  0  0
   -6.2824   -0.7574    2.0142 C   0  0  0  0  0  0  0  0  0  0  0  0
  -12.9539    0.5024    1.0770 N   0  0  0  0  0  0  0  0  0  0  0  0
  -10.3343    2.6761   -2.1815 C   0  0  0  0  0  0  0  0  0  0  0  0
  -13.9614    1.5065    1.5147 C   0  0  0  0  0  0  0  0  0  0  0  0
  -13.5246   -0.8638    1.2116 C   0  0  0  0  0  0  0  0  0  0  0  0
  -11.2519    3.8355   -1.7805 C   0  0  0  0  0  0  0  0  0  0  0  0
  -14.3396    1.3339    2.9956 C   0  0  0  0  0  0  0  0  0  0  0  0
  -13.8363   -1.2063    2.6785 C   0  0  0  0  0  0  0  0  0  0  0  0
  -11.7137    3.6408   -0.3879 N   0  0  0  0  0  0  0  0  0  0  0  0
  -13.8905    0.0147    3.5413 N   0  0  0  0  0  0  0  0  0  0  0  0
  -13.7605   -0.1340    4.9347 C   0  0  0  0  0  0  0  0  0  0  0  0
  -12.5431   -0.3742    5.4996 N   0  0  0  0  0  0  0  0  0  0  0  0
  -14.8630   -0.1755    5.7361 N   0  0  0  0  0  0  0  0  0  0  0  0
  -10.4741    0.2722   -0.3774 C   0  0  0  0  0  0  0  0  0  0  0  0
  -10.4905    0.0957    1.0332 C   0  0  0  0  0  0  0  0  0  0  0  0
   -9.4094   -0.5700    1.6749 C   0  0  0  0  0  0  0  0  0  0  0  0
   -8.3169   -1.0565    0.9066 C   0  0  0  0  0  0  0  0  0  0  0  0
   -8.3041   -0.8799   -0.5019 C   0  0  0  0  0  0  0  0  0  0  0  0
   -9.3820   -0.2147   -1.1433 C   0  0  0  0  0  0  0  0  0  0  0  0
  2  4  1  0  0  0  0
  3  5  1  0  0  0  0
  4  7  1  0  0  0  0
  6  1  1  0  0  0  0
  7 10  1  0  0  0  0
  8  6  1  0  0  0  0
  8 11  1  0  0  0  0
  9  6  1  0  0  0  0
 10 13  1  0  0  0  0
 11 14  1  0  0  0  0
 12  9  1  0  0  0  0
 14 12  1  0  0  0  0
 14 15  1  0  0  0  0
 15 16  1  0  0  0  0
 15 17  1  0  0  0  0
 18  2  1  0  0  0  0
 18 23  2  0  0  0  0
 19  1  1  0  0  0  0
 19 18  1  0  0  0  0
 20 19  2  0  0  0  0
 21  3  1  0  0  0  0
 21 20  1  0  0  0  0
 22 21  2  0  0  0  0
 22 23  1  0  0  0  0
M  END
>  <CHROM.1>
-79.42112487,-71.33473205,-154.21698414,70.08030845,-49.95640545,-115.81664258
164.91576894,-143.35990190,161.25912643,34.81006133,-85.58337096,-11.39984551
0.41709171,1.28443317,-2.43897588,0.38536902,-1.02151898

>  <Name>
1uui_lig

>  <RI>
0

>  <Rbt.Current_Directory>
/home/itssahil/PROJECTS/Mol_Feturizer/New_Systems/rnas/1uui

>  <Rbt.Executable>
rbdock ($Id: //depot/dev/client3/rdock/2013.1/src/exe/rbdock.cxx#4 $)

>  <Rbt.Library>
libRbt.so (2013.1, Build901 2013/11/27)

>  <Rbt.Parameter_File>
/export/apps/rDock/src/rDock_2013.1_src/data/scripts/dock_solv.prm

>  <Rbt.Receptor>
prm/pocket_docking_2.prm

>  <SCORE>
-17.826

>  <SCORE.INTER>
-8.85956

>  <SCORE.INTER.CONST>
1

>  <SCORE.INTER.POLAR>
-1.28853

>  <SCORE.INTER.ROT>
10

>  <SCORE.INTER.SOLV>
6.45352

>  <SCORE.INTER.VDW>
-14.0291

>  <SCORE.INTER.norm>
-0.385198

>  <SCORE.INTRA>
-9.56744

>  <SCORE.INTRA.DIHEDRAL>
-9.77231

>  <SCORE.INTRA.DIHEDRAL.0>
23.4151

>  <SCORE.INTRA.POLAR>
-1.57205

>  <SCORE.INTRA.POLAR.0>
0

>  <SCORE.INTRA.REPUL>
0

>  <SCORE.INTRA.REPUL.0>
0

>  <SCORE.INTRA.SOLV>
1.16692

>  <SCORE.INTRA.SOLV.lig_0>
-17.3568

>  <SCORE.INTRA.VDW>
0.080222

>  <SCORE.INTRA.VDW.0>
1.0768

>  <SCORE.INTRA.norm>
-0.415976

>  <SCORE.RESTR>
0.601006

>  <SCORE.RESTR.CAVITY>
0.601006

>  <SCORE.RESTR.norm>
0.0261307

>  <SCORE.SYSTEM>
0

>  <SCORE.SYSTEM.CONST>
0

>  <SCORE.SYSTEM.DIHEDRAL>
0

>  <SCORE.SYSTEM.SOLV>
0

>  <SCORE.SYSTEM.norm>
0

>  <SCORE.heavy>
23

>  <SCORE.norm>
-0.775043

>  <RMSD>
4.391

$$$$
1uui_lig
 OpenBabel11021811413D
libRbt.so/2013.1/901 2013/11/27
 23 24  0  0  0  0  0  0  0  0999 V2000
  -11.1661    0.8839    2.5185 C   0  0  0  0  0  0  0  0  0  0  0  0
  -11.8193    0.9651   -0.3131 O   0  0  0  0  0  0  0  0  0  0  0  0
   -7.0700   -1.7751    1.2484 O   0  0  0  0  0  0  0  0  0  0  0  0
  -11.5026    2.3094   -0.6961 C   0  0  0  0  0  0  0  0  0  0  0  0
   -6.1733   -0.8538    1.8739 C   0  0  0  0  0  0  0  0  0  0  0  0
  -12.6114    0.6205    2.2166 N   0  0  0  0  0  0  0  0  0  0  0  0
  -10.8417    2.2935   -2.0753 C   0  0  0  0  0  0  0  0  0  0  0  0
  -13.4849    1.6768    2.7963 C   0  0  0  0  0  0  0  0  0  0  0  0
  -13.0289   -0.7085    2.7363 C   0  0  0  0  0  0  0  0  0  0  0  0
  -11.7453    1.5726   -3.0808 C   0  0  0  0  0  0  0  0  0  0  0  0
  -13.3627    1.7475    4.3279 C   0  0  0  0  0  0  0  0  0  0  0  0
  -12.8383   -0.8073    4.2595 C   0  0  0  0  0  0  0  0  0  0  0  0
  -12.9970    2.3419   -3.2599 N   0  0  0  0  0  0  0  0  0  0  0  0
  -12.6873    0.5385    4.8953 N   0  0  0  0  0  0  0  0  0  0  0  0
  -12.1133    0.6214    6.1776 C   0  0  0  0  0  0  0  0  0  0  0  0
  -11.9009    1.8312    6.7694 N   0  0  0  0  0  0  0  0  0  0  0  0
  -11.6343   -0.4938    6.7992 N   0  0  0  0  0  0  0  0  0  0  0  0
  -10.6302    0.2749    0.0815 C   0  0  0  0  0  0  0  0  0  0  0  0
  -10.2692    0.2090    1.4550 C   0  0  0  0  0  0  0  0  0  0  0  0
   -9.0832   -0.4747    1.8421 C   0  0  0  0  0  0  0  0  0  0  0  0
   -8.2630   -1.0896    0.8575 C   0  0  0  0  0  0  0  0  0  0  0  0
   -8.6269   -1.0232   -0.5131 C   0  0  0  0  0  0  0  0  0  0  0  0
   -9.8096   -0.3402   -0.9008 C   0  0  0  0  0  0  0  0  0  0  0  0
  2  4  1  0  0  0  0
  3  5  1  0  0  0  0
  4  7  1  0  0  0  0
  6  1  1  0  0  0  0
  7 10  1  0  0  0  0
  8  6  1  0  0  0  0
  8 11  1  0  0  0  0
  9  6  1  0  0  0  0
 10 13  1  0  0  0  0
 11 14  1  0  0  0  0
 12  9  1  0  0  0  0
 14 12  1  0  0  0  0
 14 15  1  0  0  0  0
 15 16  1  0  0  0  0
 15 17  1  0  0  0  0
 18  2  1  0  0  0  0
 18 23  2  0  0  0  0
 19  1  1  0  0  0  0
 19 18  1  0  0  0  0
 20 19  2  0  0  0  0
 21  3  1  0  0  0  0
 21 20  1  0  0  0  0
 22 21  2  0  0  0  0
 22 23  1  0  0  0  0
M  END
>  <CHROM.1>
75.15569952,55.11403234,-155.04959669,64.90555524,176.93585336,-14.71724991
136.13667384,22.14426721,95.23577885,42.37856181,-61.74581207,-11.06611317
0.47826022,1.75955326,1.83080345,-0.46920368,1.74799009

>  <Name>
1uui_lig

>  <RI>
0

>  <Rbt.Current_Directory>
/home/itssahil/PROJECTS/Mol_Feturizer/New_Systems/rnas/1uui

>  <Rbt.Executable>
rbdock ($Id: //depot/dev/client3/rdock/2013.1/src/exe/rbdock.cxx#4 $)

>  <Rbt.Library>
libRbt.so (2013.1, Build901 2013/11/27)

>  <Rbt.Parameter_File>
/export/apps/rDock/src/rDock_2013.1_src/data/scripts/dock_solv.prm

>  <Rbt.Receptor>
prm/pocket_docking_2.prm

>  <SCORE>
-25.4203

>  <SCORE.INTER>
-19.0812

>  <SCORE.INTER.CONST>
1

>  <SCORE.INTER.POLAR>
-1.93031

>  <SCORE.INTER.ROT>
10

>  <SCORE.INTER.SOLV>
8.1956

>  <SCORE.INTER.VDW>
-19.2849

>  <SCORE.INTER.norm>
-0.829616

>  <SCORE.INTRA>
-6.49911

>  <SCORE.INTRA.DIHEDRAL>
-8.04278

>  <SCORE.INTRA.DIHEDRAL.0>
23.4151

>  <SCORE.INTRA.POLAR>
-0.804007

>  <SCORE.INTRA.POLAR.0>
0

>  <SCORE.INTRA.REPUL>
0

>  <SCORE.INTRA.REPUL.0>
0

>  <SCORE.INTRA.SOLV>
0.631874

>  <SCORE.INTRA.SOLV.lig_0>
-17.3568

>  <SCORE.INTRA.VDW>
-0.0600299

>  <SCORE.INTRA.VDW.0>
1.0768

>  <SCORE.INTRA.norm>
-0.28257

>  <SCORE.RESTR>
0.159938

>  <SCORE.RESTR.CAVITY>
0.159938

>  <SCORE.RESTR.norm>
0.00695384

>  <SCORE.SYSTEM>
0

>  <SCORE.SYSTEM.CONST>
0

>  <SCORE.SYSTEM.DIHEDRAL>
0

>  <SCORE.SYSTEM.SOLV>
0

>  <SCORE.SYSTEM.norm>
0

>  <SCORE.heavy>
23

>  <SCORE.norm>
-1.10523

>  <RMSD>
4.418

$$$$
1uui_lig
 OpenBabel11021811413D
libRbt.so/2013.1/901 2013/11/27
 23 24  0  0  0  0  0  0  0  0999 V2000
  -11.5274    0.8688    2.2178 C   0  0  0  0  0  0  0  0  0  0  0  0
  -10.5048    3.1235    0.6942 O   0  0  0  0  0  0  0  0  0  0  0  0
   -7.2047   -1.5035    1.1463 O   0  0  0  0  0  0  0  0  0  0  0  0
  -11.2507    3.0812   -0.5289 C   0  0  0  0  0  0  0  0  0  0  0  0
   -6.3973   -1.3980    2.3215 C   0  0  0  0  0  0  0  0  0  0  0  0
  -12.3131   -0.3539    1.8473 N   0  0  0  0  0  0  0  0  0  0  0  0
  -10.3282    3.4548   -1.6901 C   0  0  0  0  0  0  0  0  0  0  0  0
  -13.7380   -0.0188    1.5791 C   0  0  0  0  0  0  0  0  0  0  0  0
  -12.2385   -1.3790    2.9217 C   0  0  0  0  0  0  0  0  0  0  0  0
  -10.0533    2.2225   -2.5579 C   0  0  0  0  0  0  0  0  0  0  0  0
  -14.4279    0.5885    2.8125 C   0  0  0  0  0  0  0  0  0  0  0  0
  -12.7934   -0.8460    4.2537 C   0  0  0  0  0  0  0  0  0  0  0  0
  -11.2507    1.9142   -3.3713 N   0  0  0  0  0  0  0  0  0  0  0  0
  -13.6336    0.3772    4.0631 N   0  0  0  0  0  0  0  0  0  0  0  0
  -13.8771    1.2111    5.1702 C   0  0  0  0  0  0  0  0  0  0  0  0
  -15.0876    1.2012    5.7975 N   0  0  0  0  0  0  0  0  0  0  0  0
  -12.9580    2.1416    5.5563 N   0  0  0  0  0  0  0  0  0  0  0  0
   -9.6801    1.9600    0.8058 C   0  0  0  0  0  0  0  0  0  0  0  0
  -10.1374    0.8327    1.5415 C   0  0  0  0  0  0  0  0  0  0  0  0
   -9.3118   -0.3205    1.6535 C   0  0  0  0  0  0  0  0  0  0  0  0
   -8.0341   -0.3438    1.0311 C   0  0  0  0  0  0  0  0  0  0  0  0
   -7.5809    0.7830    0.2961 C   0  0  0  0  0  0  0  0  0  0  0  0
   -8.4035    1.9348    0.1845 C   0  0  0  0  0  0  0  0  0  0  0  0
  2  4  1  0  0  0  0
  3  5  1  0  0  0  0
  4  7  1  0  0  0  0
  6  1  1  0  0  0  0
  7 10  1  0  0  0  0
  8  6  1  0  0  0  0
  8 11  1  0  0  0  0
  9  6  1  0  0  0  0
 10 13  1  0  0  0  0
 11 14  1  0  0  0  0
 12  9  1  0  0  0  0
 14 12  1  0  0  0  0
 14 15  1  0  0  0  0
 15 16  1  0  0  0  0
 15 17  1  0  0  0  0
 18  2  1  0  0  0  0
 18 23  2  0  0  0  0
 19  1  1  0  0  0  0
 19 18  1  0  0  0  0
 20 19  2  0  0  0  0
 21  3  1  0  0  0  0
 21 20  1  0  0  0  0
 22 21  2  0  0  0  0
 22 23  1  0  0  0  0
M  END
>  <CHROM.1>
-76.86407312,109.88003652,-139.20630272,74.57031731,-63.27077322,63.82039513
-60.37694095,-88.12641550,-95.60986343,129.30589562,-88.58238037,-11.04022512
0.85814439,1.64330334,2.41183993,-0.39504002,2.09296070

>  <Name>
1uui_lig

>  <RI>
0

>  <Rbt.Current_Directory>
/home/itssahil/PROJECTS/Mol_Feturizer/New_Systems/rnas/1uui

>  <Rbt.Executable>
rbdock ($Id: //depot/dev/client3/rdock/2013.1/src/exe/rbdock.cxx#4 $)

>  <Rbt.Library>
libRbt.so (2013.1, Build901 2013/11/27)

>  <Rbt.Parameter_File>
/export/apps/rDock/src/rDock_2013.1_src/data/scripts/dock_solv.prm

>  <Rbt.Receptor>
prm/pocket_docking_3.prm

>  <SCORE>
-11.3574

>  <SCORE.INTER>
-8.83025

>  <SCORE.INTER.CONST>
1

>  <SCORE.INTER.POLAR>
-1.62174

>  <SCORE.INTER.ROT>
10

>  <SCORE.INTER.SOLV>
4.8862

>  <SCORE.INTER.VDW>
-12.3764

>  <SCORE.INTER.norm>
-0.383924

>  <SCORE.INTRA>
-2.52718

>  <SCORE.INTRA.DIHEDRAL>
0.442323

>  <SCORE.INTRA.DIHEDRAL.0>
23.4151

>  <SCORE.INTRA.POLAR>
0

>  <SCORE.INTRA.POLAR.0>
0

>  <SCORE.INTRA.REPUL>
0

>  <SCORE.INTRA.REPUL.0>
0

>  <SCORE.INTRA.SOLV>
0.0551608

>  <SCORE.INTRA.SOLV.lig_0>
-17.3568

>  <SCORE.INTRA.VDW>
-2.77592

>  <SCORE.INTRA.VDW.0>
1.0768

>  <SCORE.INTRA.norm>
-0.109877

>  <SCORE.RESTR>
0

>  <SCORE.RESTR.CAVITY>
0

>  <SCORE.RESTR.norm>
0

>  <SCORE.SYSTEM>
0

>  <SCORE.SYSTEM.CONST>
0

>  <SCORE.SYSTEM.DIHEDRAL>
0

>  <SCORE.SYSTEM.SOLV>
0

>  <SCORE.SYSTEM.norm>
0

>  <SCORE.heavy>
23

>  <SCORE.norm>
-0.493801

>  <RMSD>
4.442

$$$$
1uui_lig
 OpenBabel11021811413D
libRbt.so/2013.1/901 2013/11/27
 23 24  0  0  0  0  0  0  0  0999 V2000
  -10.9424    0.8021    2.3502 C   0  0  0  0  0  0  0  0  0  0  0  0
  -11.2838    0.6159   -0.5308 O   0  0  0  0  0  0  0  0  0  0  0  0
   -6.5660   -1.6355    1.7445 O   0  0  0  0  0  0  0  0  0  0  0  0
  -10.9302    1.6278   -1.4822 C   0  0  0  0  0  0  0  0  0  0  0  0
   -5.7248   -0.5861    2.2295 C   0  0  0  0  0  0  0  0  0  0  0  0
  -12.3228    0.5413    1.8251 N   0  0  0  0  0  0  0  0  0  0  0  0
  -12.2071    2.2134   -2.0869 C   0  0  0  0  0  0  0  0  0  0  0  0
  -13.2632    1.6259    2.2176 C   0  0  0  0  0  0  0  0  0  0  0  0
  -12.8395   -0.7641    2.3145 C   0  0  0  0  0  0  0  0  0  0  0  0
  -12.9931    2.9746   -1.0145 C   0  0  0  0  0  0  0  0  0  0  0  0
  -13.3916    1.7508    3.7453 C   0  0  0  0  0  0  0  0  0  0  0  0
  -12.9015   -0.8095    3.8508 C   0  0  0  0  0  0  0  0  0  0  0  0
  -12.2209    4.1623   -0.5861 N   0  0  0  0  0  0  0  0  0  0  0  0
  -12.8360    0.5569    4.4564 N   0  0  0  0  0  0  0  0  0  0  0  0
  -12.4777    0.6808    5.8117 C   0  0  0  0  0  0  0  0  0  0  0  0
  -12.8723    1.7632    6.5410 N   0  0  0  0  0  0  0  0  0  0  0  0
  -11.6187   -0.2073    6.3886 N   0  0  0  0  0  0  0  0  0  0  0  0
  -10.1027    0.0483    0.0427 C   0  0  0  0  0  0  0  0  0  0  0  0
   -9.8915    0.1157    1.4471 C   0  0  0  0  0  0  0  0  0  0  0  0
   -8.7132   -0.4463    2.0124 C   0  0  0  0  0  0  0  0  0  0  0  0
   -7.7510   -1.0727    1.1745 C   0  0  0  0  0  0  0  0  0  0  0  0
   -7.9654   -1.1394   -0.2273 C   0  0  0  0  0  0  0  0  0  0  0  0
   -9.1404   -0.5780   -0.7928 C   0  0  0  0  0  0  0  0  0  0  0  0
  2  4  1  0  0  0  0
  3  5  1  0  0  0  0
  4  7  1  0  0  0  0
  6  1  1  0  0  0  0
  7 10  1  0  0  0  0
  8  6  1  0  0  0  0
  8 11  1  0  0  0  0
  9  6  1  0  0  0  0
 10 13  1  0  0  0  0
 11 14  1  0  0  0  0
 12  9  1  0  0  0  0
 14 12  1  0  0  0  0
 14 15  1  0  0  0  0
 15 16  1  0  0  0  0
 15 17  1  0  0  0  0
 18  2  1  0  0  0  0
 18 23  2  0  0  0  0
 19  1  1  0  0  0  0
 19 18  1  0  0  0  0
 20 19  2  0  0  0  0
 21  3  1  0  0  0  0
 21 20  1  0  0  0  0
 22 21  2  0  0  0  0
 22 23  1  0  0  0  0
M  END
>  <CHROM.1>
179.67731960,66.64538778,-153.37664581,66.24528581,55.18843398,13.26070737
70.97120528,155.93136354,120.61074200,35.71153911,-69.06099816,-10.94826886
0.58222804,1.84217056,-2.37278021,0.49448103,-1.29324131

>  <Name>
1uui_lig

>  <RI>
0

>  <Rbt.Current_Directory>
/home/itssahil/PROJECTS/Mol_Feturizer/New_Systems/rnas/1uui

>  <Rbt.Executable>
rbdock ($Id: //depot/dev/client3/rdock/2013.1/src/exe/rbdock.cxx#4 $)

>  <Rbt.Library>
libRbt.so (2013.1, Build901 2013/11/27)

>  <Rbt.Parameter_File>
/export/apps/rDock/src/rDock_2013.1_src/data/scripts/dock_solv.prm

>  <Rbt.Receptor>
prm/pocket_docking_2.prm

>  <SCORE>
-19.1868

>  <SCORE.INTER>
-10.2083

>  <SCORE.INTER.CONST>
1

>  <SCORE.INTER.POLAR>
-1.13137

>  <SCORE.INTER.ROT>
10

>  <SCORE.INTER.SOLV>
6.89281

>  <SCORE.INTER.VDW>
-15.5985

>  <SCORE.INTER.norm>
-0.443837

>  <SCORE.INTRA>
-8.97859

>  <SCORE.INTRA.DIHEDRAL>
-9.68252

>  <SCORE.INTRA.DIHEDRAL.0>
23.4151

>  <SCORE.INTRA.POLAR>
-0.89796

>  <SCORE.INTRA.POLAR.0>
0

>  <SCORE.INTRA.REPUL>
0

>  <SCORE.INTRA.REPUL.0>
0

>  <SCORE.INTRA.SOLV>
0.723406

>  <SCORE.INTRA.SOLV.lig_0>
-17.3568

>  <SCORE.INTRA.VDW>
-1.44596

>  <SCORE.INTRA.VDW.0>
1.0768

>  <SCORE.INTRA.norm>
-0.390373

>  <SCORE.RESTR>
0

>  <SCORE.RESTR.CAVITY>
0

>  <SCORE.RESTR.norm>
0

>  <SCORE.SYSTEM>
0

>  <SCORE.SYSTEM.CONST>
0

>  <SCORE.SYSTEM.DIHEDRAL>
0

>  <SCORE.SYSTEM.SOLV>
0

>  <SCORE.SYSTEM.norm>
0

>  <SCORE.heavy>
23

>  <SCORE.norm>
-0.83421

>  <RMSD>
4.492

$$$$
1uui_lig
 OpenBabel11021811413D
libRbt.so/2013.1/901 2013/11/27
 23 24  0  0  0  0  0  0  0  0999 V2000
  -10.8694    1.0101    2.2062 C   0  0  0  0  0  0  0  0  0  0  0  0
  -11.2658    0.6299   -0.6486 O   0  0  0  0  0  0  0  0  0  0  0  0
   -6.5875   -1.6138    1.7142 O   0  0  0  0  0  0  0  0  0  0  0  0
  -10.9160    1.3343   -1.8467 C   0  0  0  0  0  0  0  0  0  0  0  0
   -5.5436   -0.6369    1.7210 C   0  0  0  0  0  0  0  0  0  0  0  0
  -12.2671    0.7539    1.7264 N   0  0  0  0  0  0  0  0  0  0  0  0
  -12.1905    1.8663   -2.5039 C   0  0  0  0  0  0  0  0  0  0  0  0
  -13.2033    1.8070    2.2049 C   0  0  0  0  0  0  0  0  0  0  0  0
  -12.7476   -0.5788    2.1775 C   0  0  0  0  0  0  0  0  0  0  0  0
  -12.8538    2.9058   -1.5949 C   0  0  0  0  0  0  0  0  0  0  0  0
  -13.2702    1.8624    3.7406 C   0  0  0  0  0  0  0  0  0  0  0  0
  -12.7458   -0.6931    3.7115 C   0  0  0  0  0  0  0  0  0  0  0  0
  -11.9438    4.0596   -1.4179 N   0  0  0  0  0  0  0  0  0  0  0  0
  -12.6716    0.6461    4.3745 N   0  0  0  0  0  0  0  0  0  0  0  0
  -12.2594    0.7148    5.7183 C   0  0  0  0  0  0  0  0  0  0  0  0
  -11.9661   -0.4191    6.4164 N   0  0  0  0  0  0  0  0  0  0  0  0
  -12.2735    1.9009    6.3909 N   0  0  0  0  0  0  0  0  0  0  0  0
  -10.0947    0.0646   -0.0528 C   0  0  0  0  0  0  0  0  0  0  0  0
   -9.8575    0.2250    1.3397 C   0  0  0  0  0  0  0  0  0  0  0  0
   -8.6891   -0.3352    1.9269 C   0  0  0  0  0  0  0  0  0  0  0  0
   -7.7627   -1.0528    1.1224 C   0  0  0  0  0  0  0  0  0  0  0  0
   -8.0030   -1.2124   -0.2676 C   0  0  0  0  0  0  0  0  0  0  0  0
   -9.1682   -0.6528   -0.8550 C   0  0  0  0  0  0  0  0  0  0  0  0
  2  4  1  0  0  0  0
  3  5  1  0  0  0  0
  4  7  1  0  0  0  0
  6  1  1  0  0  0  0
  7 10  1  0  0  0  0
  8  6  1  0  0  0  0
  8 11  1  0  0  0  0
  9  6  1  0  0  0  0
 10 13  1  0  0  0  0
 11 14  1  0  0  0  0
 12  9  1  0  0  0  0
 14 12  1  0  0  0  0
 14 15  1  0  0  0  0
 15 16  1  0  0  0  0
 15 17  1  0  0  0  0
 18  2  1  0  0  0  0
 18 23  2  0  0  0  0
 19  1  1  0  0  0  0
 19 18  1  0  0  0  0
 20 19  2  0  0  0  0
 21  3  1  0  0  0  0
 21 20  1  0  0  0  0
 22 21  2  0  0  0  0
 22 23  1  0  0  0  0
M  END
>  <CHROM.1>
177.04816558,64.67446656,-160.81332226,62.67405746,177.02454586,166.56924521
-141.76848026,-54.74515923,132.66586004,36.03378798,-87.29708443,-10.86658635
0.59529728,1.65512694,-2.13636749,0.49294729,-1.32216584

>  <Name>
1uui_lig

>  <RI>
0

>  <Rbt.Current_Directory>
/home/itssahil/PROJECTS/Mol_Feturizer/New_Systems/rnas/1uui

>  <Rbt.Executable>
rbdock ($Id: //depot/dev/client3/rdock/2013.1/src/exe/rbdock.cxx#4 $)

>  <Rbt.Library>
libRbt.so (2013.1, Build901 2013/11/27)

>  <Rbt.Parameter_File>
/export/apps/rDock/src/rDock_2013.1_src/data/scripts/dock_solv.prm

>  <Rbt.Receptor>
prm/pocket_docking_2.prm

>  <SCORE>
-20.4801

>  <SCORE.INTER>
-11.7423

>  <SCORE.INTER.CONST>
1

>  <SCORE.INTER.POLAR>
-1.13137

>  <SCORE.INTER.ROT>
10

>  <SCORE.INTER.SOLV>
6.93471

>  <SCORE.INTER.VDW>
-16.6352

>  <SCORE.INTER.norm>
-0.510536

>  <SCORE.INTRA>
-8.7508

>  <SCORE.INTRA.DIHEDRAL>
-10.8232

>  <SCORE.INTRA.DIHEDRAL.0>
23.4151

>  <SCORE.INTRA.POLAR>
-0.859735

>  <SCORE.INTRA.POLAR.0>
0

>  <SCORE.INTRA.REPUL>
0

>  <SCORE.INTRA.REPUL.0>
0

>  <SCORE.INTRA.SOLV>
0.655179

>  <SCORE.INTRA.SOLV.lig_0>
-17.3568

>  <SCORE.INTRA.VDW>
-0.743673

>  <SCORE.INTRA.VDW.0>
1.0768

>  <SCORE.INTRA.norm>
-0.380469

>  <SCORE.RESTR>
0.0130047

>  <SCORE.RESTR.CAVITY>
0.0130047

>  <SCORE.RESTR.norm>
0.00056542

>  <SCORE.SYSTEM>
0

>  <SCORE.SYSTEM.CONST>
0

>  <SCORE.SYSTEM.DIHEDRAL>
0

>  <SCORE.SYSTEM.SOLV>
0

>  <SCORE.SYSTEM.norm>
0

>  <SCORE.heavy>
23

>  <SCORE.norm>
-0.890439

>  <RMSD>
4.512

$$$$
1uui_lig
 OpenBabel11021811413D
libRbt.so/2013.1/901 2013/11/27
 23 24  0  0  0  0  0  0  0  0999 V2000
  -11.0498    0.6754    2.2697 C   0  0  0  0  0  0  0  0  0  0  0  0
  -11.2287    0.8374   -0.6274 O   0  0  0  0  0  0  0  0  0  0  0  0
   -6.7052   -1.8072    1.6194 O   0  0  0  0  0  0  0  0  0  0  0  0
  -10.8346    2.1079   -1.1607 C   0  0  0  0  0  0  0  0  0  0  0  0
   -5.8110   -0.8359    2.1679 C   0  0  0  0  0  0  0  0  0  0  0  0
  -12.4032    0.5225    1.6417 N   0  0  0  0  0  0  0  0  0  0  0  0
  -11.9756    2.6688   -2.0108 C   0  0  0  0  0  0  0  0  0  0  0  0
  -13.3228    1.6113    2.0701 C   0  0  0  0  0  0  0  0  0  0  0  0
  -13.0015   -0.7950    1.9832 C   0  0  0  0  0  0  0  0  0  0  0  0
  -11.8046    4.1813   -2.1845 C   0  0  0  0  0  0  0  0  0  0  0  0
  -13.5435    1.6119    3.5924 C   0  0  0  0  0  0  0  0  0  0  0  0
  -13.1633   -0.9676    3.5031 C   0  0  0  0  0  0  0  0  0  0  0  0
  -10.4953    4.4610   -2.8154 N   0  0  0  0  0  0  0  0  0  0  0  0
  -13.0824    0.3382    4.2286 N   0  0  0  0  0  0  0  0  0  0  0  0
  -12.8068    0.3305    5.6087 C   0  0  0  0  0  0  0  0  0  0  0  0
  -13.5337    1.0989    6.4690 N   0  0  0  0  0  0  0  0  0  0  0  0
  -11.7245   -0.3388    6.0987 N   0  0  0  0  0  0  0  0  0  0  0  0
  -10.0966    0.1709   -0.0614 C   0  0  0  0  0  0  0  0  0  0  0  0
   -9.9653    0.0673    1.3504 C   0  0  0  0  0  0  0  0  0  0  0  0
   -8.8353   -0.5925    1.9087 C   0  0  0  0  0  0  0  0  0  0  0  0
   -7.8416   -1.1458    1.0562 C   0  0  0  0  0  0  0  0  0  0  0  0
   -7.9762   -1.0419   -0.3532 C   0  0  0  0  0  0  0  0  0  0  0  0
   -9.1029   -0.3827   -0.9115 C   0  0  0  0  0  0  0  0  0  0  0  0
  2  4  1  0  0  0  0
  3  5  1  0  0  0  0
  4  7  1  0  0  0  0
  6  1  1  0  0  0  0
  7 10  1  0  0  0  0
  8  6  1  0  0  0  0
  8 11  1  0  0  0  0
  9  6  1  0  0  0  0
 10 13  1  0  0  0  0
 11 14  1  0  0  0  0
 12  9  1  0  0  0  0
 14 12  1  0  0  0  0
 14 15  1  0  0  0  0
 15 16  1  0  0  0  0
 15 17  1  0  0  0  0
 18  2  1  0  0  0  0
 18 23  2  0  0  0  0
 19  1  1  0  0  0  0
 19 18  1  0  0  0  0
 20 19  2  0  0  0  0
 21  3  1  0  0  0  0
 21 20  1  0  0  0  0
 22 21  2  0  0  0  0
 22 23  1  0  0  0  0
M  END
>  <CHROM.1>
168.24041712,160.34216778,-151.29781986,58.12315980,-65.97341867,34.30504091
90.47107041,-49.42788602,106.97138416,35.59032601,-74.08110922,-10.90658652
0.60132833,1.56065851,-2.10242058,0.48677573,-1.08904084

>  <Name>
1uui_lig

>  <RI>
0

>  <Rbt.Current_Directory>
/home/itssahil/PROJECTS/Mol_Feturizer/New_Systems/rnas/1uui

>  <Rbt.Executable>
rbdock ($Id: //depot/dev/client3/rdock/2013.1/src/exe/rbdock.cxx#4 $)

>  <Rbt.Library>
libRbt.so (2013.1, Build901 2013/11/27)

>  <Rbt.Parameter_File>
/export/apps/rDock/src/rDock_2013.1_src/data/scripts/dock_solv.prm

>  <Rbt.Receptor>
prm/pocket_docking_2.prm

>  <SCORE>
-22.6221

>  <SCORE.INTER>
-15.0933

>  <SCORE.INTER.CONST>
1

>  <SCORE.INTER.POLAR>
-2.09036

>  <SCORE.INTER.ROT>
10

>  <SCORE.INTER.SOLV>
7.6649

>  <SCORE.INTER.VDW>
-15.916

>  <SCORE.INTER.norm>
-0.656232

>  <SCORE.INTRA>
-8.08649

>  <SCORE.INTRA.DIHEDRAL>
-6.67264

>  <SCORE.INTRA.DIHEDRAL.0>
23.4151

>  <SCORE.INTRA.POLAR>
-0.897115

>  <SCORE.INTRA.POLAR.0>
0

>  <SCORE.INTRA.REPUL>
0

>  <SCORE.INTRA.REPUL.0>
0

>  <SCORE.INTRA.SOLV>
0.426118

>  <SCORE.INTRA.SOLV.lig_0>
-17.3568

>  <SCORE.INTRA.VDW>
-1.91304

>  <SCORE.INTRA.VDW.0>
1.0768

>  <SCORE.INTRA.norm>
-0.351587

>  <SCORE.RESTR>
0.557682

>  <SCORE.RESTR.CAVITY>
0.557682

>  <SCORE.RESTR.norm>
0.024247

>  <SCORE.SYSTEM>
0

>  <SCORE.SYSTEM.CONST>
0

>  <SCORE.SYSTEM.DIHEDRAL>
0

>  <SCORE.SYSTEM.SOLV>
0

>  <SCORE.SYSTEM.norm>
0

>  <SCORE.heavy>
23

>  <SCORE.norm>
-0.983571

>  <RMSD>
4.527

$$$$
1uui_lig
 OpenBabel11021811413D
libRbt.so/2013.1/901 2013/11/27
 23 24  0  0  0  0  0  0  0  0999 V2000
  -11.1308    0.9084    2.5498 C   0  0  0  0  0  0  0  0  0  0  0  0
  -11.8823    1.1582   -0.2474 O   0  0  0  0  0  0  0  0  0  0  0  0
   -7.1730   -1.8066    0.9921 O   0  0  0  0  0  0  0  0  0  0  0  0
  -11.5278    2.4802   -0.6725 C   0  0  0  0  0  0  0  0  0  0  0  0
   -6.0601   -0.9138    1.0835 C   0  0  0  0  0  0  0  0  0  0  0  0
  -12.5946    0.7479    2.2651 N   0  0  0  0  0  0  0  0  0  0  0  0
  -12.8043    3.2709   -0.9631 C   0  0  0  0  0  0  0  0  0  0  0  0
  -13.3849    1.8600    2.8594 C   0  0  0  0  0  0  0  0  0  0  0  0
  -13.0975   -0.5510    2.7852 C   0  0  0  0  0  0  0  0  0  0  0  0
  -12.4557    4.7268   -1.2885 C   0  0  0  0  0  0  0  0  0  0  0  0
  -13.2394    1.9151    4.3897 C   0  0  0  0  0  0  0  0  0  0  0  0
  -12.8957   -0.6697    4.3055 C   0  0  0  0  0  0  0  0  0  0  0  0
  -11.7445    4.7865   -2.5851 N   0  0  0  0  0  0  0  0  0  0  0  0
  -12.6432    0.6595    4.9442 N   0  0  0  0  0  0  0  0  0  0  0  0
  -12.0492    0.6964    6.2194 C   0  0  0  0  0  0  0  0  0  0  0  0
  -11.6159   -0.4484    6.8200 N   0  0  0  0  0  0  0  0  0  0  0  0
  -12.0155    1.8546    6.9384 N   0  0  0  0  0  0  0  0  0  0  0  0
  -10.7032    0.4115    0.0663 C   0  0  0  0  0  0  0  0  0  0  0  0
  -10.2954    0.2626    1.4201 C   0  0  0  0  0  0  0  0  0  0  0  0
   -9.1196   -0.4771    1.7268 C   0  0  0  0  0  0  0  0  0  0  0  0
   -8.3561   -1.0647    0.6819 C   0  0  0  0  0  0  0  0  0  0  0  0
   -8.7666   -0.9153   -0.6689 C   0  0  0  0  0  0  0  0  0  0  0  0
   -9.9393   -0.1764   -0.9763 C   0  0  0  0  0  0  0  0  0  0  0  0
  2  4  1  0  0  0  0
  3  5  1  0  0  0  0
  4  7  1  0  0  0  0
  6  1  1  0  0  0  0
  7 10  1  0  0  0  0
  8  6  1  0  0  0  0
  8 11  1  0  0  0  0
  9  6  1  0  0  0  0
 10 13  1  0  0  0  0
 11 14  1  0  0  0  0
 12  9  1  0  0  0  0
 14 12  1  0  0  0  0
 14 15  1  0  0  0  0
 15 16  1  0  0  0  0
 15 17  1  0  0  0  0
 18  2  1  0  0  0  0
 18 23  2  0  0  0  0
 19  1  1  0  0  0  0
 19 18  1  0  0  0  0
 20 19  2  0  0  0  0
 21  3  1  0  0  0  0
 21 20  1  0  0  0  0
 22 21  2  0  0  0  0
 22 23  1  0  0  0  0
M  END
>  <CHROM.1>
-178.38237816,174.55735229,-151.09578441,68.28077577,178.48379642,173.30915622
25.85552946,110.78886915,99.68012498,40.41859648,-86.22756229,-11.12922387
0.86017822,1.87697845,-1.91221380,0.65953879,-1.16565958

>  <Name>
1uui_lig

>  <RI>
0

>  <Rbt.Current_Directory>
/home/itssahil/PROJECTS/Mol_Feturizer/New_Systems/rnas/1uui

>  <Rbt.Executable>
rbdock ($Id: //depot/dev/client3/rdock/2013.1/src/exe/rbdock.cxx#4 $)

>  <Rbt.Library>
libRbt.so (2013.1, Build901 2013/11/27)

>  <Rbt.Parameter_File>
/export/apps/rDock/src/rDock_2013.1_src/data/scripts/dock_solv.prm

>  <Rbt.Receptor>
prm/pocket_docking_2.prm

>  <SCORE>
-20.2916

>  <SCORE.INTER>
-11.8756

>  <SCORE.INTER.CONST>
1

>  <SCORE.INTER.POLAR>
-1.13137

>  <SCORE.INTER.ROT>
10

>  <SCORE.INTER.SOLV>
7.76798

>  <SCORE.INTER.VDW>
-17.0018

>  <SCORE.INTER.norm>
-0.516329

>  <SCORE.INTRA>
-8.41603

>  <SCORE.INTRA.DIHEDRAL>
-7.67024

>  <SCORE.INTRA.DIHEDRAL.0>
23.4151

>  <SCORE.INTRA.POLAR>
-0.817198

>  <SCORE.INTRA.POLAR.0>
0

>  <SCORE.INTRA.REPUL>
0

>  <SCORE.INTRA.REPUL.0>
0

>  <SCORE.INTRA.SOLV>
0.397603

>  <SCORE.INTRA.SOLV.lig_0>
-17.3568

>  <SCORE.INTRA.VDW>
-2.00124

>  <SCORE.INTRA.VDW.0>
1.0768

>  <SCORE.INTRA.norm>
-0.365914

>  <SCORE.RESTR>
0

>  <SCORE.RESTR.CAVITY>
0

>  <SCORE.RESTR.norm>
0

>  <SCORE.SYSTEM>
0

>  <SCORE.SYSTEM.CONST>
0

>  <SCORE.SYSTEM.DIHEDRAL>
0

>  <SCORE.SYSTEM.SOLV>
0

>  <SCORE.SYSTEM.norm>
0

>  <SCORE.heavy>
23

>  <SCORE.norm>
-0.882243

>  <RMSD>
4.537

$$$$
1uui_lig
 OpenBabel11021811413D
libRbt.so/2013.1/901 2013/11/27
 23 24  0  0  0  0  0  0  0  0999 V2000
  -11.4681    0.3637    2.1462 C   0  0  0  0  0  0  0  0  0  0  0  0
  -11.2160    1.9281   -0.2911 O   0  0  0  0  0  0  0  0  0  0  0  0
   -6.5479   -0.6653    1.7056 O   0  0  0  0  0  0  0  0  0  0  0  0
  -11.7211    1.2253   -1.4335 C   0  0  0  0  0  0  0  0  0  0  0  0
   -6.5324   -2.0271    1.2706 C   0  0  0  0  0  0  0  0  0  0  0  0
  -12.2466    1.6412    2.0390 N   0  0  0  0  0  0  0  0  0  0  0  0
  -10.8571    1.5622   -2.6497 C   0  0  0  0  0  0  0  0  0  0  0  0
  -11.6671    2.7007    2.9086 C   0  0  0  0  0  0  0  0  0  0  0  0
  -13.6723    1.4265    2.4021 C   0  0  0  0  0  0  0  0  0  0  0  0
  -11.6380    1.2877   -3.9389 C   0  0  0  0  0  0  0  0  0  0  0  0
  -11.6852    2.2996    4.3935 C   0  0  0  0  0  0  0  0  0  0  0  0
  -13.8185    0.9030    3.8411 C   0  0  0  0  0  0  0  0  0  0  0  0
  -10.7293    1.4053   -5.1013 N   0  0  0  0  0  0  0  0  0  0  0  0
  -12.5794    1.1272    4.6491 N   0  0  0  0  0  0  0  0  0  0  0  0
  -12.3892    0.3720    5.8213 C   0  0  0  0  0  0  0  0  0  0  0  0
  -12.0914    0.9827    7.0034 N   0  0  0  0  0  0  0  0  0  0  0  0
  -12.3651   -0.9907    5.7752 N   0  0  0  0  0  0  0  0  0  0  0  0
  -10.0469    1.2734    0.2097 C   0  0  0  0  0  0  0  0  0  0  0  0
  -10.1211    0.4977    1.3988 C   0  0  0  0  0  0  0  0  0  0  0  0
   -8.9548   -0.1479    1.8955 C   0  0  0  0  0  0  0  0  0  0  0  0
   -7.7200   -0.0169    1.2037 C   0  0  0  0  0  0  0  0  0  0  0  0
   -7.6494    0.7573    0.0159 C   0  0  0  0  0  0  0  0  0  0  0  0
   -8.8125    1.4030   -0.4801 C   0  0  0  0  0  0  0  0  0  0  0  0
  2  4  1  0  0  0  0
  3  5  1  0  0  0  0
  4  7  1  0  0  0  0
  6  1  1  0  0  0  0
  7 10  1  0  0  0  0
  8  6  1  0  0  0  0
  8 11  1  0  0  0  0
  9  6  1  0  0  0  0
 10 13  1  0  0  0  0
 11 14  1  0  0  0  0
 12  9  1  0  0  0  0
 14 12  1  0  0  0  0
 14 15  1  0  0  0  0
 15 16  1  0  0  0  0
 15 17  1  0  0  0  0
 18  2  1  0  0  0  0
 18 23  2  0  0  0  0
 19  1  1  0  0  0  0
 19 18  1  0  0  0  0
 20 19  2  0  0  0  0
 21  3  1  0  0  0  0
 21 20  1  0  0  0  0
 22 21  2  0  0  0  0
 22 23  1  0  0  0  0
M  END
>  <CHROM.1>
-77.35280764,-158.52453085,-73.87307127,-170.90908920,-162.42330141,39.65770090
-102.17411577,-62.98899703,-104.91931910,-34.90076817,83.17783940,-10.74590898
0.83271350,1.50600130,1.89890901,-0.37926432,1.73239780

>  <Name>
1uui_lig

>  <RI>
0

>  <Rbt.Current_Directory>
/home/itssahil/PROJECTS/Mol_Feturizer/New_Systems/rnas/1uui

>  <Rbt.Executable>
rbdock ($Id: //depot/dev/client3/rdock/2013.1/src/exe/rbdock.cxx#4 $)

>  <Rbt.Library>
libRbt.so (2013.1, Build901 2013/11/27)

>  <Rbt.Parameter_File>
/export/apps/rDock/src/rDock_2013.1_src/data/scripts/dock_solv.prm

>  <Rbt.Receptor>
prm/pocket_docking_6.prm

>  <SCORE>
-25.9498

>  <SCORE.INTER>
-18.97

>  <SCORE.INTER.CONST>
1

>  <SCORE.INTER.POLAR>
-2.35756

>  <SCORE.INTER.ROT>
10

>  <SCORE.INTER.SOLV>
9.36834

>  <SCORE.INTER.VDW>
-18.1776

>  <SCORE.INTER.norm>
-0.824782

>  <SCORE.INTRA>
-6.97977

>  <SCORE.INTRA.DIHEDRAL>
-5.46165

>  <SCORE.INTRA.DIHEDRAL.0>
23.4151

>  <SCORE.INTRA.POLAR>
-0.820672

>  <SCORE.INTRA.POLAR.0>
0

>  <SCORE.INTRA.REPUL>
0

>  <SCORE.INTRA.REPUL.0>
0

>  <SCORE.INTRA.SOLV>
0.296247

>  <SCORE.INTRA.SOLV.lig_0>
-17.3568

>  <SCORE.INTRA.VDW>
-1.60679

>  <SCORE.INTRA.VDW.0>
1.0768

>  <SCORE.INTRA.norm>
-0.303468

>  <SCORE.RESTR>
0

>  <SCORE.RESTR.CAVITY>
0

>  <SCORE.RESTR.norm>
0

>  <SCORE.SYSTEM>
0

>  <SCORE.SYSTEM.CONST>
0

>  <SCORE.SYSTEM.DIHEDRAL>
0

>  <SCORE.SYSTEM.SOLV>
0

>  <SCORE.SYSTEM.norm>
0

>  <SCORE.heavy>
23

>  <SCORE.norm>
-1.12825

>  <RMSD>
4.549

$$$$
1uui_lig
 OpenBabel11021811413D
libRbt.so/2013.1/901 2013/11/27
 23 24  0  0  0  0  0  0  0  0999 V2000
  -11.5397   -0.2836    2.1394 C   0  0  0  0  0  0  0  0  0  0  0  0
  -11.5936    0.8707   -0.5282 O   0  0  0  0  0  0  0  0  0  0  0  0
   -6.6006   -1.0481    1.4448 O   0  0  0  0  0  0  0  0  0  0  0  0
  -11.5692    0.9179   -1.9604 C   0  0  0  0  0  0  0  0  0  0  0  0
   -5.7679    0.0619    1.7889 C   0  0  0  0  0  0  0  0  0  0  0  0
  -12.4492    0.8745    1.8546 N   0  0  0  0  0  0  0  0  0  0  0  0
  -12.6141    1.9241   -2.4451 C   0  0  0  0  0  0  0  0  0  0  0  0
  -12.0104    2.0966    2.5818 C   0  0  0  0  0  0  0  0  0  0  0  0
  -13.8520    0.5525    2.2276 C   0  0  0  0  0  0  0  0  0  0  0  0
  -12.2464    3.3324   -1.9669 C   0  0  0  0  0  0  0  0  0  0  0  0
  -12.0227    1.8941    4.1065 C   0  0  0  0  0  0  0  0  0  0  0  0
  -13.9771    0.2093    3.7218 C   0  0  0  0  0  0  0  0  0  0  0  0
  -13.4738    4.0516   -1.5588 N   0  0  0  0  0  0  0  0  0  0  0  0
  -12.7907    0.6734    4.5062 N   0  0  0  0  0  0  0  0  0  0  0  0
  -12.5496    0.1042    5.7705 C   0  0  0  0  0  0  0  0  0  0  0  0
  -12.5014   -1.2492    5.9280 N   0  0  0  0  0  0  0  0  0  0  0  0
  -12.4929    0.8860    6.8864 N   0  0  0  0  0  0  0  0  0  0  0  0
  -10.3427    0.3851   -0.0325 C   0  0  0  0  0  0  0  0  0  0  0  0
  -10.2669   -0.1871    1.2667 C   0  0  0  0  0  0  0  0  0  0  0  0
   -9.0197   -0.6646    1.7571 C   0  0  0  0  0  0  0  0  0  0  0  0
   -7.8541   -0.5692    0.9493 C   0  0  0  0  0  0  0  0  0  0  0  0
   -7.9333    0.0015   -0.3481 C   0  0  0  0  0  0  0  0  0  0  0  0
   -9.1772    0.4794   -0.8382 C   0  0  0  0  0  0  0  0  0  0  0  0
  2  4  1  0  0  0  0
  3  5  1  0  0  0  0
  4  7  1  0  0  0  0
  6  1  1  0  0  0  0
  7 10  1  0  0  0  0
  8  6  1  0  0  0  0
  8 11  1  0  0  0  0
  9  6  1  0  0  0  0
 10 13  1  0  0  0  0
 11 14  1  0  0  0  0
 12  9  1  0  0  0  0
 14 12  1  0  0  0  0
 14 15  1  0  0  0  0
 15 16  1  0  0  0  0
 15 17  1  0  0  0  0
 18  2  1  0  0  0  0
 18 23  2  0  0  0  0
 19  1  1  0  0  0  0
 19 18  1  0  0  0  0
 20 19  2  0  0  0  0
 21  3  1  0  0  0  0
 21 20  1  0  0  0  0
 22 21  2  0  0  0  0
 22 23  1  0  0  0  0
M  END
>  <CHROM.1>
-157.21703391,64.01043122,-80.60732413,-140.62898221,-59.89691525,-139.90179287
112.24333518,-144.86696775,-157.98733538,-32.46458602,-106.08672920,-11.12394582
0.70030485,1.65359222,-1.97366908,0.36962558,-1.27228089

>  <Name>
1uui_lig

>  <RI>
0

>  <Rbt.Current_Directory>
/home/itssahil/PROJECTS/Mol_Feturizer/New_Systems/rnas/1uui

>  <Rbt.Executable>
rbdock ($Id: //depot/dev/client3/rdock/2013.1/src/exe/rbdock.cxx#4 $)

>  <Rbt.Library>
libRbt.so (2013.1, Build901 2013/11/27)

>  <Rbt.Parameter_File>
/export/apps/rDock/src/rDock_2013.1_src/data/scripts/dock_solv.prm

>  <Rbt.Receptor>
prm/pocket_docking_2.prm

>  <SCORE>
-13.5664

>  <SCORE.INTER>
-8.71237

>  <SCORE.INTER.CONST>
1

>  <SCORE.INTER.POLAR>
-1.13137

>  <SCORE.INTER.ROT>
10

>  <SCORE.INTER.SOLV>
7.15036

>  <SCORE.INTER.VDW>
-14.6871

>  <SCORE.INTER.norm>
-0.378799

>  <SCORE.INTRA>
-5.1978

>  <SCORE.INTRA.DIHEDRAL>
-6.48892

>  <SCORE.INTRA.DIHEDRAL.0>
23.4151

>  <SCORE.INTRA.POLAR>
-0.821337

>  <SCORE.INTRA.POLAR.0>
0

>  <SCORE.INTRA.REPUL>
0

>  <SCORE.INTRA.REPUL.0>
0

>  <SCORE.INTRA.SOLV>
0.438231

>  <SCORE.INTRA.SOLV.lig_0>
-17.3568

>  <SCORE.INTRA.VDW>
0.620094

>  <SCORE.INTRA.VDW.0>
1.0768

>  <SCORE.INTRA.norm>
-0.225991

>  <SCORE.RESTR>
0.343807

>  <SCORE.RESTR.CAVITY>
0.343807

>  <SCORE.RESTR.norm>
0.0149482

>  <SCORE.SYSTEM>
0

>  <SCORE.SYSTEM.CONST>
0

>  <SCORE.SYSTEM.DIHEDRAL>
0

>  <SCORE.SYSTEM.SOLV>
0

>  <SCORE.SYSTEM.norm>
0

>  <SCORE.heavy>
23

>  <SCORE.norm>
-0.589842

>  <RMSD>
4.592

$$$$
1uui_lig
 OpenBabel11021811413D
libRbt.so/2013.1/901 2013/11/27
 23 24  0  0  0  0  0  0  0  0999 V2000
  -11.8257    1.3258    1.8160 C   0  0  0  0  0  0  0  0  0  0  0  0
  -11.5117    1.5114   -1.0682 O   0  0  0  0  0  0  0  0  0  0  0  0
   -7.7782   -1.6874    1.8184 O   0  0  0  0  0  0  0  0  0  0  0  0
  -11.0927    2.8819   -1.0544 C   0  0  0  0  0  0  0  0  0  0  0  0
   -6.6257   -0.9028    2.1352 C   0  0  0  0  0  0  0  0  0  0  0  0
  -13.1321    0.6229    1.5957 N   0  0  0  0  0  0  0  0  0  0  0  0
  -12.1986    3.7487   -1.6583 C   0  0  0  0  0  0  0  0  0  0  0  0
  -14.2401    1.3046    2.3185 C   0  0  0  0  0  0  0  0  0  0  0  0
  -13.0528   -0.7955    2.0343 C   0  0  0  0  0  0  0  0  0  0  0  0
  -12.4735    3.3162   -3.1021 C   0  0  0  0  0  0  0  0  0  0  0  0
  -14.0060    1.3287    3.8385 C   0  0  0  0  0  0  0  0  0  0  0  0
  -12.7008   -0.9086    3.5274 C   0  0  0  0  0  0  0  0  0  0  0  0
  -13.1254    1.9874   -3.1039 N   0  0  0  0  0  0  0  0  0  0  0  0
  -12.9300    0.3768    4.2577 N   0  0  0  0  0  0  0  0  0  0  0  0
  -12.2969    0.5730    5.4991 C   0  0  0  0  0  0  0  0  0  0  0  0
  -12.0589   -0.4783    6.3341 N   0  0  0  0  0  0  0  0  0  0  0  0
  -12.0295    1.8307    5.9531 N   0  0  0  0  0  0  0  0  0  0  0  0
  -10.5784    0.7063   -0.3423 C   0  0  0  0  0  0  0  0  0  0  0  0
  -10.6913    0.5858    1.0698 C   0  0  0  0  0  0  0  0  0  0  0  0
   -9.7581   -0.2124    1.7880 C   0  0  0  0  0  0  0  0  0  0  0  0
   -8.7167   -0.8868    1.0944 C   0  0  0  0  0  0  0  0  0  0  0  0
   -8.6074   -0.7655   -0.3158 C   0  0  0  0  0  0  0  0  0  0  0  0
   -9.5374    0.0317   -1.0335 C   0  0  0  0  0  0  0  0  0  0  0  0
  2  4  1  0  0  0  0
  3  5  1  0  0  0  0
  4  7  1  0  0  0  0
  6  1  1  0  0  0  0
  7 10  1  0  0  0  0
  8  6  1  0  0  0  0
  8 11  1  0  0  0  0
  9  6  1  0  0  0  0
 10 13  1  0  0  0  0
 11 14  1  0  0  0  0
 12  9  1  0  0  0  0
 14 12  1  0  0  0  0
 14 15  1  0  0  0  0
 15 16  1  0  0  0  0
 15 17  1  0  0  0  0
 18  2  1  0  0  0  0
 18 23  2  0  0  0  0
 19  1  1  0  0  0  0
 19 18  1  0  0  0  0
 20 19  2  0  0  0  0
 21  3  1  0  0  0  0
 21 20  1  0  0  0  0
 22 21  2  0  0  0  0
 22 23  1  0  0  0  0
M  END
>  <CHROM.1>
-171.97070917,-60.06438554,179.24595102,69.93797859,-62.51416801,135.93369060
45.61205761,-32.00544955,84.59887992,75.22134670,-93.89132833,-11.38357980
0.68871058,1.47203181,1.65929495,-0.46414025,1.87379148

>  <Name>
1uui_lig

>  <RI>
0

>  <Rbt.Current_Directory>
/home/itssahil/PROJECTS/Mol_Feturizer/New_Systems/rnas/1uui

>  <Rbt.Executable>
rbdock ($Id: //depot/dev/client3/rdock/2013.1/src/exe/rbdock.cxx#4 $)

>  <Rbt.Library>
libRbt.so (2013.1, Build901 2013/11/27)

>  <Rbt.Parameter_File>
/export/apps/rDock/src/rDock_2013.1_src/data/scripts/dock_solv.prm

>  <Rbt.Receptor>
prm/pocket_docking_2.prm

>  <SCORE>
-24.7717

>  <SCORE.INTER>
-16.6467

>  <SCORE.INTER.CONST>
1

>  <SCORE.INTER.POLAR>
-2.24281

>  <SCORE.INTER.ROT>
10

>  <SCORE.INTER.SOLV>
7.24389

>  <SCORE.INTER.VDW>
-16.303

>  <SCORE.INTER.norm>
-0.723767

>  <SCORE.INTRA>
-8.28997

>  <SCORE.INTRA.DIHEDRAL>
-8.95682

>  <SCORE.INTRA.DIHEDRAL.0>
23.4151

>  <SCORE.INTRA.POLAR>
-0.510304

>  <SCORE.INTRA.POLAR.0>
0

>  <SCORE.INTRA.REPUL>
0

>  <SCORE.INTRA.REPUL.0>
0

>  <SCORE.INTRA.SOLV>
0.793021

>  <SCORE.INTRA.SOLV.lig_0>
-17.3568

>  <SCORE.INTRA.VDW>
-2.47303

>  <SCORE.INTRA.VDW.0>
1.0768

>  <SCORE.INTRA.norm>
-0.360433

>  <SCORE.RESTR>
0.16494

>  <SCORE.RESTR.CAVITY>
0.16494

>  <SCORE.RESTR.norm>
0.0071713

>  <SCORE.SYSTEM>
0

>  <SCORE.SYSTEM.CONST>
0

>  <SCORE.SYSTEM.DIHEDRAL>
0

>  <SCORE.SYSTEM.SOLV>
0

>  <SCORE.SYSTEM.norm>
0

>  <SCORE.heavy>
23

>  <SCORE.norm>
-1.07703

>  <RMSD>
4.599

$$$$
1uui_lig
 OpenBabel11021811413D
libRbt.so/2013.1/901 2013/11/27
 23 24  0  0  0  0  0  0  0  0999 V2000
  -11.7828   -0.1664    1.7747 C   0  0  0  0  0  0  0  0  0  0  0  0
  -11.7084    0.6959   -1.0006 O   0  0  0  0  0  0  0  0  0  0  0  0
   -6.7534   -0.5076    1.5495 O   0  0  0  0  0  0  0  0  0  0  0  0
  -11.5118    1.7117   -1.9922 C   0  0  0  0  0  0  0  0  0  0  0  0
   -6.5314   -1.9197    1.5244 C   0  0  0  0  0  0  0  0  0  0  0  0
  -12.7462    0.8940    1.3314 N   0  0  0  0  0  0  0  0  0  0  0  0
  -11.1802    3.0325   -1.2958 C   0  0  0  0  0  0  0  0  0  0  0  0
  -12.6205    2.1200    2.1656 C   0  0  0  0  0  0  0  0  0  0  0  0
  -14.1463    0.3971    1.3882 C   0  0  0  0  0  0  0  0  0  0  0  0
  -11.2454    4.1858   -2.3021 C   0  0  0  0  0  0  0  0  0  0  0  0
  -12.9264    1.8414    3.6470 C   0  0  0  0  0  0  0  0  0  0  0  0
  -14.5383   -0.0325    2.8123 C   0  0  0  0  0  0  0  0  0  0  0  0
  -12.6596    4.4834   -2.6215 N   0  0  0  0  0  0  0  0  0  0  0  0
  -13.6072    0.5231    3.8431 N   0  0  0  0  0  0  0  0  0  0  0  0
  -13.5684   -0.0776    5.1151 C   0  0  0  0  0  0  0  0  0  0  0  0
  -12.3967   -0.5510    5.6271 N   0  0  0  0  0  0  0  0  0  0  0  0
  -14.7190   -0.3211    5.8053 N   0  0  0  0  0  0  0  0  0  0  0  0
  -10.4667    0.3897   -0.3598 C   0  0  0  0  0  0  0  0  0  0  0  0
  -10.4528   -0.0353    0.9968 C   0  0  0  0  0  0  0  0  0  0  0  0
   -9.2151   -0.3344    1.6312 C   0  0  0  0  0  0  0  0  0  0  0  0
   -7.9971   -0.2082    0.9095 C   0  0  0  0  0  0  0  0  0  0  0  0
   -8.0144    0.2152   -0.4454 C   0  0  0  0  0  0  0  0  0  0  0  0
   -9.2489    0.5150   -1.0793 C   0  0  0  0  0  0  0  0  0  0  0  0
  2  4  1  0  0  0  0
  3  5  1  0  0  0  0
  4  7  1  0  0  0  0
  6  1  1  0  0  0  0
  7 10  1  0  0  0  0
  8  6  1  0  0  0  0
  8 11  1  0  0  0  0
  9  6  1  0  0  0  0
 10 13  1  0  0  0  0
 11 14  1  0  0  0  0
 12  9  1  0  0  0  0
 14 12  1  0  0  0  0
 14 15  1  0  0  0  0
 15 16  1  0  0  0  0
 15 17  1  0  0  0  0
 18  2  1  0  0  0  0
 18 23  2  0  0  0  0
 19  1  1  0  0  0  0
 19 18  1  0  0  0  0
 20 19  2  0  0  0  0
 21  3  1  0  0  0  0
 21 20  1  0  0  0  0
 22 21  2  0  0  0  0
 22 23  1  0  0  0  0
M  END
>  <CHROM.1>
-68.92535852,-168.57509246,-90.97389042,73.88687378,58.94344533,-67.98164370
162.12636953,-114.01662286,149.28590936,-34.61520642,82.08937699,-11.35972595
0.75811771,1.28199007,-2.23545736,0.38374796,-1.03956968

>  <Name>
1uui_lig

>  <RI>
0

>  <Rbt.Current_Directory>
/home/itssahil/PROJECTS/Mol_Feturizer/New_Systems/rnas/1uui

>  <Rbt.Executable>
rbdock ($Id: //depot/dev/client3/rdock/2013.1/src/exe/rbdock.cxx#4 $)

>  <Rbt.Library>
libRbt.so (2013.1, Build901 2013/11/27)

>  <Rbt.Parameter_File>
/export/apps/rDock/src/rDock_2013.1_src/data/scripts/dock_solv.prm

>  <Rbt.Receptor>
prm/pocket_docking_2.prm

>  <SCORE>
-14.7771

>  <SCORE.INTER>
-8.09527

>  <SCORE.INTER.CONST>
1

>  <SCORE.INTER.POLAR>
-1.29764

>  <SCORE.INTER.ROT>
10

>  <SCORE.INTER.SOLV>
5.91328

>  <SCORE.INTER.VDW>
-13.3092

>  <SCORE.INTER.norm>
-0.351968

>  <SCORE.INTRA>
-7.08104

>  <SCORE.INTRA.DIHEDRAL>
-9.60756

>  <SCORE.INTRA.DIHEDRAL.0>
23.4151

>  <SCORE.INTRA.POLAR>
-0.891269

>  <SCORE.INTRA.POLAR.0>
0

>  <SCORE.INTRA.REPUL>
0

>  <SCORE.INTRA.REPUL.0>
0

>  <SCORE.INTRA.SOLV>
0.425822

>  <SCORE.INTRA.SOLV.lig_0>
-17.3568

>  <SCORE.INTRA.VDW>
0.540142

>  <SCORE.INTRA.VDW.0>
1.0768

>  <SCORE.INTRA.norm>
-0.307871

>  <SCORE.RESTR>
0.399223

>  <SCORE.RESTR.CAVITY>
0.399223

>  <SCORE.RESTR.norm>
0.0173575

>  <SCORE.SYSTEM>
0

>  <SCORE.SYSTEM.CONST>
0

>  <SCORE.SYSTEM.DIHEDRAL>
0

>  <SCORE.SYSTEM.SOLV>
0

>  <SCORE.SYSTEM.norm>
0

>  <SCORE.heavy>
23

>  <SCORE.norm>
-0.642482

>  <RMSD>
4.622

$$$$
1uui_lig
 OpenBabel11021811413D
libRbt.so/2013.1/901 2013/11/27
 23 24  0  0  0  0  0  0  0  0999 V2000
  -11.3945    1.3412    1.3543 C   0  0  0  0  0  0  0  0  0  0  0  0
  -10.6232    1.4237   -1.4474 O   0  0  0  0  0  0  0  0  0  0  0  0
   -7.5087   -1.7948    2.0804 O   0  0  0  0  0  0  0  0  0  0  0  0
  -11.5536    0.6071   -2.1697 C   0  0  0  0  0  0  0  0  0  0  0  0
   -6.2625   -1.1442    2.3411 C   0  0  0  0  0  0  0  0  0  0  0  0
  -12.6650    0.5866    1.0974 N   0  0  0  0  0  0  0  0  0  0  0  0
  -12.3914    1.4974   -3.0887 C   0  0  0  0  0  0  0  0  0  0  0  0
  -13.8577    1.3976    1.4638 C   0  0  0  0  0  0  0  0  0  0  0  0
  -12.6845   -0.6935    1.8534 C   0  0  0  0  0  0  0  0  0  0  0  0
  -13.1400    2.5470   -2.2609 C   0  0  0  0  0  0  0  0  0  0  0  0
  -13.8633    1.7704    2.9561 C   0  0  0  0  0  0  0  0  0  0  0  0
  -12.5723   -0.4587    3.3694 C   0  0  0  0  0  0  0  0  0  0  0  0
  -12.1829    3.5638   -1.7706 N   0  0  0  0  0  0  0  0  0  0  0  0
  -12.8859    0.9555    3.7437 N   0  0  0  0  0  0  0  0  0  0  0  0
  -12.4503    1.4386    4.9916 C   0  0  0  0  0  0  0  0  0  0  0  0
  -12.8864    0.8682    6.1507 N   0  0  0  0  0  0  0  0  0  0  0  0
  -11.6916    2.5686    5.0743 N   0  0  0  0  0  0  0  0  0  0  0  0
   -9.8455    0.6138   -0.5612 C   0  0  0  0  0  0  0  0  0  0  0  0
  -10.1840    0.5426    0.8178 C   0  0  0  0  0  0  0  0  0  0  0  0
   -9.4049   -0.2607    1.6963 C   0  0  0  0  0  0  0  0  0  0  0  0
   -8.2920   -0.9891    1.1952 C   0  0  0  0  0  0  0  0  0  0  0  0
   -7.9573   -0.9169   -0.1825 C   0  0  0  0  0  0  0  0  0  0  0  0
   -8.7334   -0.1148   -1.0599 C   0  0  0  0  0  0  0  0  0  0  0  0
  2  4  1  0  0  0  0
  3  5  1  0  0  0  0
  4  7  1  0  0  0  0
  6  1  1  0  0  0  0
  7 10  1  0  0  0  0
  8  6  1  0  0  0  0
  8 11  1  0  0  0  0
  9  6  1  0  0  0  0
 10 13  1  0  0  0  0
 11 14  1  0  0  0  0
 12  9  1  0  0  0  0
 14 12  1  0  0  0  0
 14 15  1  0  0  0  0
 15 16  1  0  0  0  0
 15 17  1  0  0  0  0
 18  2  1  0  0  0  0
 18 23  2  0  0  0  0
 19  1  1  0  0  0  0
 19 18  1  0  0  0  0
 20 19  2  0  0  0  0
 21  3  1  0  0  0  0
 21 20  1  0  0  0  0
 22 21  2  0  0  0  0
 22 23  1  0  0  0  0
M  END
>  <CHROM.1>
178.87715561,-59.02768247,-173.60378959,72.42748852,-50.36312609,106.97808390
-27.22472894,-175.17744288,-99.51114288,82.23148926,-105.50415150,-11.12436507
0.71271005,1.23302324,1.98680270,-0.48147865,1.72834770

>  <Name>
1uui_lig

>  <RI>
0

>  <Rbt.Current_Directory>
/home/itssahil/PROJECTS/Mol_Feturizer/New_Systems/rnas/1uui

>  <Rbt.Executable>
rbdock ($Id: //depot/dev/client3/rdock/2013.1/src/exe/rbdock.cxx#4 $)

>  <Rbt.Library>
libRbt.so (2013.1, Build901 2013/11/27)

>  <Rbt.Parameter_File>
/export/apps/rDock/src/rDock_2013.1_src/data/scripts/dock_solv.prm

>  <Rbt.Receptor>
prm/pocket_docking_2.prm

>  <SCORE>
-16.6291

>  <SCORE.INTER>
-6.73223

>  <SCORE.INTER.CONST>
1

>  <SCORE.INTER.POLAR>
-0.386296

>  <SCORE.INTER.ROT>
10

>  <SCORE.INTER.SOLV>
5.50267

>  <SCORE.INTER.VDW>
-15.3014

>  <SCORE.INTER.norm>
-0.292706

>  <SCORE.INTRA>
-9.95581

>  <SCORE.INTRA.DIHEDRAL>
-9.05543

>  <SCORE.INTRA.DIHEDRAL.0>
23.4151

>  <SCORE.INTRA.POLAR>
-0.695464

>  <SCORE.INTRA.POLAR.0>
0

>  <SCORE.INTRA.REPUL>
0

>  <SCORE.INTRA.REPUL.0>
0

>  <SCORE.INTRA.SOLV>
0.965633

>  <SCORE.INTRA.SOLV.lig_0>
-17.3568

>  <SCORE.INTRA.VDW>
-3.54633

>  <SCORE.INTRA.VDW.0>
1.0768

>  <SCORE.INTRA.norm>
-0.432861

>  <SCORE.RESTR>
0.058988

>  <SCORE.RESTR.CAVITY>
0.058988

>  <SCORE.RESTR.norm>
0.00256469

>  <SCORE.SYSTEM>
0

>  <SCORE.SYSTEM.CONST>
0

>  <SCORE.SYSTEM.DIHEDRAL>
0

>  <SCORE.SYSTEM.SOLV>
0

>  <SCORE.SYSTEM.norm>
0

>  <SCORE.heavy>
23

>  <SCORE.norm>
-0.723002

>  <RMSD>
4.634

$$$$
1uui_lig
 OpenBabel11021811413D
libRbt.so/2013.1/901 2013/11/27
 23 24  0  0  0  0  0  0  0  0999 V2000
  -11.1722    0.9693    2.2898 C   0  0  0  0  0  0  0  0  0  0  0  0
  -11.6656    0.9152   -0.5746 O   0  0  0  0  0  0  0  0  0  0  0  0
   -6.9722   -1.6719    1.3703 O   0  0  0  0  0  0  0  0  0  0  0  0
  -12.1162    0.2762   -1.7757 C   0  0  0  0  0  0  0  0  0  0  0  0
   -6.2024   -0.7450    2.1399 C   0  0  0  0  0  0  0  0  0  0  0  0
  -12.5931    0.6385    1.9421 N   0  0  0  0  0  0  0  0  0  0  0  0
  -13.4492    0.8940   -2.2006 C   0  0  0  0  0  0  0  0  0  0  0  0
  -13.5341    1.6467    2.5013 C   0  0  0  0  0  0  0  0  0  0  0  0
  -12.9610   -0.7131    2.4405 C   0  0  0  0  0  0  0  0  0  0  0  0
  -13.2415    2.3548   -2.6132 C   0  0  0  0  0  0  0  0  0  0  0  0
  -13.4621    1.7114    4.0364 C   0  0  0  0  0  0  0  0  0  0  0  0
  -12.8122   -0.8143    3.9681 C   0  0  0  0  0  0  0  0  0  0  0  0
  -12.5649    2.4051   -3.9285 N   0  0  0  0  0  0  0  0  0  0  0  0
  -12.7461    0.5323    4.6166 N   0  0  0  0  0  0  0  0  0  0  0  0
  -12.2160    0.6330    5.9164 C   0  0  0  0  0  0  0  0  0  0  0  0
  -11.9814    1.8516    6.4811 N   0  0  0  0  0  0  0  0  0  0  0  0
  -11.8004   -0.4794    6.5867 N   0  0  0  0  0  0  0  0  0  0  0  0
  -10.4906    0.2634   -0.0839 C   0  0  0  0  0  0  0  0  0  0  0  0
  -10.2068    0.2640    1.3092 C   0  0  0  0  0  0  0  0  0  0  0  0
   -9.0347   -0.3816    1.7920 C   0  0  0  0  0  0  0  0  0  0  0  0
   -8.1512   -1.0248    0.8831 C   0  0  0  0  0  0  0  0  0  0  0  0
   -8.4380   -1.0248   -0.5072 C   0  0  0  0  0  0  0  0  0  0  0  0
   -9.6069   -0.3799   -0.9904 C   0  0  0  0  0  0  0  0  0  0  0  0
  2  4  1  0  0  0  0
  3  5  1  0  0  0  0
  4  7  1  0  0  0  0
  6  1  1  0  0  0  0
  7 10  1  0  0  0  0
  8  6  1  0  0  0  0
  8 11  1  0  0  0  0
  9  6  1  0  0  0  0
 10 13  1  0  0  0  0
 11 14  1  0  0  0  0
 12  9  1  0  0  0  0
 14 12  1  0  0  0  0
 14 15  1  0  0  0  0
 15 16  1  0  0  0  0
 15 17  1  0  0  0  0
 18  2  1  0  0  0  0
 18 23  2  0  0  0  0
 19  1  1  0  0  0  0
 19 18  1  0  0  0  0
 20 19  2  0  0  0  0
 21  3  1  0  0  0  0
 21 20  1  0  0  0  0
 22 21  2  0  0  0  0
 22 23  1  0  0  0  0
M  END
>  <CHROM.1>
174.17894683,66.52779146,-159.07189703,73.48274662,-68.93772309,-19.97891284
146.59133934,-151.78784156,-151.18136475,43.88505100,-54.90216925,-11.22301489
0.38261120,1.55977440,1.65194655,-0.39977040,1.66649743

>  <Name>
1uui_lig

>  <RI>
0

>  <Rbt.Current_Directory>
/home/itssahil/PROJECTS/Mol_Feturizer/New_Systems/rnas/1uui

>  <Rbt.Executable>
rbdock ($Id: //depot/dev/client3/rdock/2013.1/src/exe/rbdock.cxx#4 $)

>  <Rbt.Library>
libRbt.so (2013.1, Build901 2013/11/27)

>  <Rbt.Parameter_File>
/export/apps/rDock/src/rDock_2013.1_src/data/scripts/dock_solv.prm

>  <Rbt.Receptor>
prm/pocket_docking_6.prm

>  <SCORE>
-29.5047

>  <SCORE.INTER>
-22.6716

>  <SCORE.INTER.CONST>
1

>  <SCORE.INTER.POLAR>
-2.25655

>  <SCORE.INTER.ROT>
10

>  <SCORE.INTER.SOLV>
8.62094

>  <SCORE.INTER.VDW>
-20.7329

>  <SCORE.INTER.norm>
-0.985722

>  <SCORE.INTRA>
-6.83305

>  <SCORE.INTRA.DIHEDRAL>
-12.6148

>  <SCORE.INTRA.DIHEDRAL.0>
23.4151

>  <SCORE.INTRA.POLAR>
-0.763688

>  <SCORE.INTRA.POLAR.0>
0

>  <SCORE.INTRA.REPUL>
0

>  <SCORE.INTRA.REPUL.0>
0

>  <SCORE.INTRA.SOLV>
0.543859

>  <SCORE.INTRA.SOLV.lig_0>
-17.3568

>  <SCORE.INTRA.VDW>
1.79894

>  <SCORE.INTRA.VDW.0>
1.0768

>  <SCORE.INTRA.norm>
-0.297089

>  <SCORE.RESTR>
0

>  <SCORE.RESTR.CAVITY>
0

>  <SCORE.RESTR.norm>
0

>  <SCORE.SYSTEM>
0

>  <SCORE.SYSTEM.CONST>
0

>  <SCORE.SYSTEM.DIHEDRAL>
0

>  <SCORE.SYSTEM.SOLV>
0

>  <SCORE.SYSTEM.norm>
0

>  <SCORE.heavy>
23

>  <SCORE.norm>
-1.28281

>  <RMSD>
4.634

$$$$
1uui_lig
 OpenBabel11021811413D
libRbt.so/2013.1/901 2013/11/27
 23 24  0  0  0  0  0  0  0  0999 V2000
  -11.3344    1.1173    2.1418 C   0  0  0  0  0  0  0  0  0  0  0  0
  -11.1668    0.9028   -0.7525 O   0  0  0  0  0  0  0  0  0  0  0  0
   -6.5944   -0.6060    2.3004 O   0  0  0  0  0  0  0  0  0  0  0  0
  -11.1012    2.2985   -1.0713 C   0  0  0  0  0  0  0  0  0  0  0  0
   -6.0297    0.5545    2.9156 C   0  0  0  0  0  0  0  0  0  0  0  0
  -12.5509    0.5145    1.5045 N   0  0  0  0  0  0  0  0  0  0  0  0
  -12.0847    2.5995   -2.2032 C   0  0  0  0  0  0  0  0  0  0  0  0
  -13.7550    1.3581    1.7354 C   0  0  0  0  0  0  0  0  0  0  0  0
  -12.7989   -0.8563    2.0242 C   0  0  0  0  0  0  0  0  0  0  0  0
  -11.6672    1.8506   -3.4728 C   0  0  0  0  0  0  0  0  0  0  0  0
  -14.0734    1.5083    3.2327 C   0  0  0  0  0  0  0  0  0  0  0  0
  -13.0143   -0.8551    3.5472 C   0  0  0  0  0  0  0  0  0  0  0  0
  -12.5526    2.2436   -4.5918 N   0  0  0  0  0  0  0  0  0  0  0  0
  -13.3350    0.5102    4.0682 N   0  0  0  0  0  0  0  0  0  0  0  0
  -13.1643    0.7688    5.4410 C   0  0  0  0  0  0  0  0  0  0  0  0
  -12.0747    0.2946    6.1095 N   0  0  0  0  0  0  0  0  0  0  0  0
  -14.1467    1.3817    6.1613 N   0  0  0  0  0  0  0  0  0  0  0  0
  -10.0222    0.5211    0.0157 C   0  0  0  0  0  0  0  0  0  0  0  0
  -10.0566    0.6095    1.4343 C   0  0  0  0  0  0  0  0  0  0  0  0
   -8.9142    0.2331    2.1939 C   0  0  0  0  0  0  0  0  0  0  0  0
   -7.7428   -0.2297    1.5351 C   0  0  0  0  0  0  0  0  0  0  0  0
   -7.7120   -0.3180    0.1186 C   0  0  0  0  0  0  0  0  0  0  0  0
   -8.8511    0.0584   -0.6407 C   0  0  0  0  0  0  0  0  0  0  0  0
  2  4  1  0  0  0  0
  3  5  1  0  0  0  0
  4  7  1  0  0  0  0
  6  1  1  0  0  0  0
  7 10  1  0  0  0  0
  8  6  1  0  0  0  0
  8 11  1  0  0  0  0
  9  6  1  0  0  0  0
 10 13  1  0  0  0  0
 11 14  1  0  0  0  0
 12  9  1  0  0  0  0
 14 12  1  0  0  0  0
 14 15  1  0  0  0  0
 15 16  1  0  0  0  0
 15 17  1  0  0  0  0
 18  2  1  0  0  0  0
 18 23  2  0  0  0  0
 19  1  1  0  0  0  0
 19 18  1  0  0  0  0
 20 19  2  0  0  0  0
 21  3  1  0  0  0  0
 21 20  1  0  0  0  0
 22 21  2  0  0  0  0
 22 23  1  0  0  0  0
M  END
>  <CHROM.1>
163.80106962,-63.88490485,-156.25109142,-174.93551109,-81.31215738,-150.21921302
159.04621310,-75.72772471,89.38309778,42.56227334,-68.08750991,-11.12865806
0.73857615,1.46710304,1.89539077,-0.21064453,1.76322646

>  <Name>
1uui_lig

>  <RI>
0

>  <Rbt.Current_Directory>
/home/itssahil/PROJECTS/Mol_Feturizer/New_Systems/rnas/1uui

>  <Rbt.Executable>
rbdock ($Id: //depot/dev/client3/rdock/2013.1/src/exe/rbdock.cxx#4 $)

>  <Rbt.Library>
libRbt.so (2013.1, Build901 2013/11/27)

>  <Rbt.Parameter_File>
/export/apps/rDock/src/rDock_2013.1_src/data/scripts/dock_solv.prm

>  <Rbt.Receptor>
prm/pocket_docking_3.prm

>  <SCORE>
-23.0677

>  <SCORE.INTER>
-15.0336

>  <SCORE.INTER.CONST>
1

>  <SCORE.INTER.POLAR>
-2.24458

>  <SCORE.INTER.ROT>
10

>  <SCORE.INTER.SOLV>
7.74302

>  <SCORE.INTER.VDW>
-15.3882

>  <SCORE.INTER.norm>
-0.653636

>  <SCORE.INTRA>
-8.04997

>  <SCORE.INTRA.DIHEDRAL>
-6.54642

>  <SCORE.INTRA.DIHEDRAL.0>
23.4151

>  <SCORE.INTRA.POLAR>
-0.761954

>  <SCORE.INTRA.POLAR.0>
0

>  <SCORE.INTRA.REPUL>
0

>  <SCORE.INTRA.REPUL.0>
0

>  <SCORE.INTRA.SOLV>
0.342114

>  <SCORE.INTRA.SOLV.lig_0>
-17.3568

>  <SCORE.INTRA.VDW>
-2.35717

>  <SCORE.INTRA.VDW.0>
1.0768

>  <SCORE.INTRA.norm>
-0.349998

>  <SCORE.RESTR>
0.015845

>  <SCORE.RESTR.CAVITY>
0.015845

>  <SCORE.RESTR.norm>
0.000688914

>  <SCORE.SYSTEM>
0

>  <SCORE.SYSTEM.CONST>
0

>  <SCORE.SYSTEM.DIHEDRAL>
0

>  <SCORE.SYSTEM.SOLV>
0

>  <SCORE.SYSTEM.norm>
0

>  <SCORE.heavy>
23

>  <SCORE.norm>
-1.00295

>  <RMSD>
4.635

$$$$
1uui_lig
 OpenBabel11021811413D
libRbt.so/2013.1/901 2013/11/27
 23 24  0  0  0  0  0  0  0  0999 V2000
  -10.7225    1.0179    2.1551 C   0  0  0  0  0  0  0  0  0  0  0  0
  -10.6751    1.5373   -0.7049 O   0  0  0  0  0  0  0  0  0  0  0  0
   -7.0250   -2.3232    1.3632 O   0  0  0  0  0  0  0  0  0  0  0  0
  -10.1792    2.0629   -1.9425 C   0  0  0  0  0  0  0  0  0  0  0  0
   -5.7192   -1.7466    1.4439 C   0  0  0  0  0  0  0  0  0  0  0  0
  -12.0956    1.0588    1.5532 N   0  0  0  0  0  0  0  0  0  0  0  0
  -11.1169    3.1699   -2.4269 C   0  0  0  0  0  0  0  0  0  0  0  0
  -12.9463    2.0824    2.2191 C   0  0  0  0  0  0  0  0  0  0  0  0
  -12.7556   -0.2703    1.6450 C   0  0  0  0  0  0  0  0  0  0  0  0
  -12.5074    2.5920   -2.7092 C   0  0  0  0  0  0  0  0  0  0  0  0
  -13.1329    1.7887    3.7174 C   0  0  0  0  0  0  0  0  0  0  0  0
  -12.8928   -0.7359    3.1047 C   0  0  0  0  0  0  0  0  0  0  0  0
  -12.3917    1.4758   -3.6742 N   0  0  0  0  0  0  0  0  0  0  0  0
  -12.7263    0.3929    4.0724 N   0  0  0  0  0  0  0  0  0  0  0  0
  -12.4212    0.0958    5.4138 C   0  0  0  0  0  0  0  0  0  0  0  0
  -12.5134   -1.1809    5.8834 N   0  0  0  0  0  0  0  0  0  0  0  0
  -12.1577    1.0936    6.3051 N   0  0  0  0  0  0  0  0  0  0  0  0
   -9.7628    0.5663   -0.1842 C   0  0  0  0  0  0  0  0  0  0  0  0
   -9.7486    0.2790    1.2081 C   0  0  0  0  0  0  0  0  0  0  0  0
   -8.8365   -0.6842    1.7219 C   0  0  0  0  0  0  0  0  0  0  0  0
   -7.9427   -1.3564    0.8446 C   0  0  0  0  0  0  0  0  0  0  0  0
   -7.9602   -1.0683   -0.5454 C   0  0  0  0  0  0  0  0  0  0  0  0
   -8.8693   -0.1064   -1.0592 C   0  0  0  0  0  0  0  0  0  0  0  0
  2  4  1  0  0  0  0
  3  5  1  0  0  0  0
  4  7  1  0  0  0  0
  6  1  1  0  0  0  0
  7 10  1  0  0  0  0
  8  6  1  0  0  0  0
  8 11  1  0  0  0  0
  9  6  1  0  0  0  0
 10 13  1  0  0  0  0
 11 14  1  0  0  0  0
 12  9  1  0  0  0  0
 14 12  1  0  0  0  0
 14 15  1  0  0  0  0
 15 16  1  0  0  0  0
 15 17  1  0  0  0  0
 18  2  1  0  0  0  0
 18 23  2  0  0  0  0
 19  1  1  0  0  0  0
 19 18  1  0  0  0  0
 20 19  2  0  0  0  0
 21  3  1  0  0  0  0
 21 20  1  0  0  0  0
 22 21  2  0  0  0  0
 22 23  1  0  0  0  0
M  END
>  <CHROM.1>
-175.88304622,-62.87656617,-163.24657937,-55.53343562,76.79448308,156.44552663
114.35722050,164.20879494,156.31413759,44.76994187,-102.87725946,-10.78740430
0.43227007,1.29026918,1.95443211,-0.50157988,1.88957923

>  <Name>
1uui_lig

>  <RI>
0

>  <Rbt.Current_Directory>
/home/itssahil/PROJECTS/Mol_Feturizer/New_Systems/rnas/1uui

>  <Rbt.Executable>
rbdock ($Id: //depot/dev/client3/rdock/2013.1/src/exe/rbdock.cxx#4 $)

>  <Rbt.Library>
libRbt.so (2013.1, Build901 2013/11/27)

>  <Rbt.Parameter_File>
/export/apps/rDock/src/rDock_2013.1_src/data/scripts/dock_solv.prm

>  <Rbt.Receptor>
prm/pocket_docking_2.prm

>  <SCORE>
-26.2267

>  <SCORE.INTER>
-19.7547

>  <SCORE.INTER.CONST>
1

>  <SCORE.INTER.POLAR>
-1.91687

>  <SCORE.INTER.ROT>
10

>  <SCORE.INTER.SOLV>
8.58727

>  <SCORE.INTER.VDW>
-19.9093

>  <SCORE.INTER.norm>
-0.8589

>  <SCORE.INTRA>
-7.05969

>  <SCORE.INTRA.DIHEDRAL>
-12.4223

>  <SCORE.INTRA.DIHEDRAL.0>
23.4151

>  <SCORE.INTRA.POLAR>
-0.769897

>  <SCORE.INTRA.POLAR.0>
0

>  <SCORE.INTRA.REPUL>
0

>  <SCORE.INTRA.REPUL.0>
0

>  <SCORE.INTRA.SOLV>
0.603644

>  <SCORE.INTRA.SOLV.lig_0>
-17.3568

>  <SCORE.INTRA.VDW>
1.46731

>  <SCORE.INTRA.VDW.0>
1.0768

>  <SCORE.INTRA.norm>
-0.306943

>  <SCORE.RESTR>
0.587644

>  <SCORE.RESTR.CAVITY>
0.587644

>  <SCORE.RESTR.norm>
0.0255498

>  <SCORE.SYSTEM>
0

>  <SCORE.SYSTEM.CONST>
0

>  <SCORE.SYSTEM.DIHEDRAL>
0

>  <SCORE.SYSTEM.SOLV>
0

>  <SCORE.SYSTEM.norm>
0

>  <SCORE.heavy>
23

>  <SCORE.norm>
-1.14029

>  <RMSD>
4.647

$$$$
1uui_lig
 OpenBabel11021811413D
libRbt.so/2013.1/901 2013/11/27
 23 24  0  0  0  0  0  0  0  0999 V2000
  -12.1063    1.3029    1.6290 C   0  0  0  0  0  0  0  0  0  0  0  0
  -11.7574    1.0324   -1.2444 O   0  0  0  0  0  0  0  0  0  0  0  0
   -7.8629   -1.3771    2.1513 O   0  0  0  0  0  0  0  0  0  0  0  0
  -11.3396    2.3556   -1.6027 C   0  0  0  0  0  0  0  0  0  0  0  0
   -6.7757   -0.4692    2.3460 C   0  0  0  0  0  0  0  0  0  0  0  0
  -13.3931    0.8102    1.0368 N   0  0  0  0  0  0  0  0  0  0  0  0
  -10.7520    2.3291   -3.0145 C   0  0  0  0  0  0  0  0  0  0  0  0
  -14.5379    1.6700    1.4427 C   0  0  0  0  0  0  0  0  0  0  0  0
  -13.6605   -0.5952    1.4419 C   0  0  0  0  0  0  0  0  0  0  0  0
  -11.7951    1.8042   -4.0061 C   0  0  0  0  0  0  0  0  0  0  0  0
  -14.7343    1.6838    2.9682 C   0  0  0  0  0  0  0  0  0  0  0  0
  -13.7589   -0.7359    2.9705 C   0  0  0  0  0  0  0  0  0  0  0  0
  -12.9864    2.6821   -3.9807 N   0  0  0  0  0  0  0  0  0  0  0  0
  -13.9788    0.5823    3.6431 N   0  0  0  0  0  0  0  0  0  0  0  0
  -13.6926    0.6983    5.0161 C   0  0  0  0  0  0  0  0  0  0  0  0
  -12.7289    1.5560    5.4573 N   0  0  0  0  0  0  0  0  0  0  0  0
  -14.2755   -0.1381    5.9217 N   0  0  0  0  0  0  0  0  0  0  0  0
  -10.7836    0.4254   -0.3903 C   0  0  0  0  0  0  0  0  0  0  0  0
  -10.9116    0.5316    1.0216 C   0  0  0  0  0  0  0  0  0  0  0  0
   -9.9382   -0.0699    1.8669 C   0  0  0  0  0  0  0  0  0  0  0  0
   -8.8417   -0.7745    1.2999 C   0  0  0  0  0  0  0  0  0  0  0  0
   -8.7172   -0.8799   -0.1103 C   0  0  0  0  0  0  0  0  0  0  0  0
   -9.6875   -0.2791   -0.9549 C   0  0  0  0  0  0  0  0  0  0  0  0
  2  4  1  0  0  0  0
  3  5  1  0  0  0  0
  4  7  1  0  0  0  0
  6  1  1  0  0  0  0
  7 10  1  0  0  0  0
  8  6  1  0  0  0  0
  8 11  1  0  0  0  0
  9  6  1  0  0  0  0
 10 13  1  0  0  0  0
 11 14  1  0  0  0  0
 12  9  1  0  0  0  0
 14 12  1  0  0  0  0
 14 15  1  0  0  0  0
 15 16  1  0  0  0  0
 15 17  1  0  0  0  0
 18  2  1  0  0  0  0
 18 23  2  0  0  0  0
 19  1  1  0  0  0  0
 19 18  1  0  0  0  0
 20 19  2  0  0  0  0
 21  3  1  0  0  0  0
 21 20  1  0  0  0  0
 22 21  2  0  0  0  0
 22 23  1  0  0  0  0
M  END
>  <CHROM.1>
101.05488307,58.44739343,-171.27362013,59.51473534,-176.76721967,-74.07182264
4.82379084,55.90427454,92.41849598,51.23027305,-93.57041904,-11.74163492
0.64448581,1.09213833,1.97065251,-0.33098617,1.83981071

>  <Name>
1uui_lig

>  <RI>
0

>  <Rbt.Current_Directory>
/home/itssahil/PROJECTS/Mol_Feturizer/New_Systems/rnas/1uui

>  <Rbt.Executable>
rbdock ($Id: //depot/dev/client3/rdock/2013.1/src/exe/rbdock.cxx#4 $)

>  <Rbt.Library>
libRbt.so (2013.1, Build901 2013/11/27)

>  <Rbt.Parameter_File>
/export/apps/rDock/src/rDock_2013.1_src/data/scripts/dock_solv.prm

>  <Rbt.Receptor>
prm/pocket_docking_3.prm

>  <SCORE>
-24.9875

>  <SCORE.INTER>
-18.1948

>  <SCORE.INTER.CONST>
1

>  <SCORE.INTER.POLAR>
-2.58418

>  <SCORE.INTER.ROT>
10

>  <SCORE.INTER.SOLV>
7.29175

>  <SCORE.INTER.VDW>
-16.2132

>  <SCORE.INTER.norm>
-0.791076

>  <SCORE.INTRA>
-6.80933

>  <SCORE.INTRA.DIHEDRAL>
-3.81355

>  <SCORE.INTRA.DIHEDRAL.0>
23.4151

>  <SCORE.INTRA.POLAR>
-0.66403

>  <SCORE.INTRA.POLAR.0>
0

>  <SCORE.INTRA.REPUL>
0

>  <SCORE.INTRA.REPUL.0>
0

>  <SCORE.INTRA.SOLV>
0.618792

>  <SCORE.INTRA.SOLV.lig_0>
-17.3568

>  <SCORE.INTRA.VDW>
-2.95425

>  <SCORE.INTRA.VDW.0>
1.0768

>  <SCORE.INTRA.norm>
-0.296058

>  <SCORE.RESTR>
0.0165777

>  <SCORE.RESTR.CAVITY>
0.0165777

>  <SCORE.RESTR.norm>
0.000720769

>  <SCORE.SYSTEM>
0

>  <SCORE.SYSTEM.CONST>
0

>  <SCORE.SYSTEM.DIHEDRAL>
0

>  <SCORE.SYSTEM.SOLV>
0

>  <SCORE.SYSTEM.norm>
0

>  <SCORE.heavy>
23

>  <SCORE.norm>
-1.08641

>  <RMSD>
4.654

$$$$
1uui_lig
 OpenBabel11021811413D
libRbt.so/2013.1/901 2013/11/27
 23 24  0  0  0  0  0  0  0  0999 V2000
  -11.4599    1.2547    2.0439 C   0  0  0  0  0  0  0  0  0  0  0  0
  -11.8053    1.0506   -0.8354 O   0  0  0  0  0  0  0  0  0  0  0  0
   -7.0378   -1.0982    1.4355 O   0  0  0  0  0  0  0  0  0  0  0  0
  -11.6131    2.4349   -1.1528 C   0  0  0  0  0  0  0  0  0  0  0  0
   -6.8943   -2.4655    1.0430 C   0  0  0  0  0  0  0  0  0  0  0  0
  -12.8181    0.6918    1.7472 N   0  0  0  0  0  0  0  0  0  0  0  0
  -12.9209    3.0083   -1.7007 C   0  0  0  0  0  0  0  0  0  0  0  0
  -13.8867    1.4763    2.4234 C   0  0  0  0  0  0  0  0  0  0  0  0
  -12.9065   -0.7316    2.1676 C   0  0  0  0  0  0  0  0  0  0  0  0
  -12.8222    4.5338   -1.8013 C   0  0  0  0  0  0  0  0  0  0  0  0
  -13.7305    1.4611    3.9536 C   0  0  0  0  0  0  0  0  0  0  0  0
  -12.6457   -0.8952    3.6747 C   0  0  0  0  0  0  0  0  0  0  0  0
  -11.8930    4.8977   -2.8942 N   0  0  0  0  0  0  0  0  0  0  0  0
  -12.7803    0.3997    4.4120 N   0  0  0  0  0  0  0  0  0  0  0  0
  -12.1956    0.5174    5.6867 C   0  0  0  0  0  0  0  0  0  0  0  0
  -11.9320   -0.5896    6.4377 N   0  0  0  0  0  0  0  0  0  0  0  0
  -12.0040    1.7425    6.2541 N   0  0  0  0  0  0  0  0  0  0  0  0
  -10.6117    0.5087   -0.2629 C   0  0  0  0  0  0  0  0  0  0  0  0
  -10.3981    0.5857    1.1405 C   0  0  0  0  0  0  0  0  0  0  0  0
   -9.2074    0.0494    1.7048 C   0  0  0  0  0  0  0  0  0  0  0  0
   -8.2353   -0.5612    0.8666 C   0  0  0  0  0  0  0  0  0  0  0  0
   -8.4520   -0.6376   -0.5343 C   0  0  0  0  0  0  0  0  0  0  0  0
   -9.6395   -0.1018   -1.0987 C   0  0  0  0  0  0  0  0  0  0  0  0
  2  4  1  0  0  0  0
  3  5  1  0  0  0  0
  4  7  1  0  0  0  0
  6  1  1  0  0  0  0
  7 10  1  0  0  0  0
  8  6  1  0  0  0  0
  8 11  1  0  0  0  0
  9  6  1  0  0  0  0
 10 13  1  0  0  0  0
 11 14  1  0  0  0  0
 12  9  1  0  0  0  0
 14 12  1  0  0  0  0
 14 15  1  0  0  0  0
 15 16  1  0  0  0  0
 15 17  1  0  0  0  0
 18  2  1  0  0  0  0
 18 23  2  0  0  0  0
 19  1  1  0  0  0  0
 19 18  1  0  0  0  0
 20 19  2  0  0  0  0
 21  3  1  0  0  0  0
 21 20  1  0  0  0  0
 22 21  2  0  0  0  0
 22 23  1  0  0  0  0
M  END
>  <CHROM.1>
-177.33471745,169.49272669,-170.04259790,70.60295919,-46.01661683,145.54710515
40.65372522,-4.50792429,88.23438243,50.11838003,125.53027376,-11.23912414
0.80045460,1.52777147,1.69869826,-0.60181347,1.99743004

>  <Name>
1uui_lig

>  <RI>
0

>  <Rbt.Current_Directory>
/home/itssahil/PROJECTS/Mol_Feturizer/New_Systems/rnas/1uui

>  <Rbt.Executable>
rbdock ($Id: //depot/dev/client3/rdock/2013.1/src/exe/rbdock.cxx#4 $)

>  <Rbt.Library>
libRbt.so (2013.1, Build901 2013/11/27)

>  <Rbt.Parameter_File>
/export/apps/rDock/src/rDock_2013.1_src/data/scripts/dock_solv.prm

>  <Rbt.Receptor>
prm/pocket_docking_2.prm

>  <SCORE>
-21.7938

>  <SCORE.INTER>
-14.2201

>  <SCORE.INTER.CONST>
1

>  <SCORE.INTER.POLAR>
-1.75859

>  <SCORE.INTER.ROT>
10

>  <SCORE.INTER.SOLV>
7.2055

>  <SCORE.INTER.VDW>
-16.2866

>  <SCORE.INTER.norm>
-0.618267

>  <SCORE.INTRA>
-7.86791

>  <SCORE.INTRA.DIHEDRAL>
-9.70994

>  <SCORE.INTRA.DIHEDRAL.0>
23.4151

>  <SCORE.INTRA.POLAR>
-0.634935

>  <SCORE.INTRA.POLAR.0>
0

>  <SCORE.INTRA.REPUL>
0

>  <SCORE.INTRA.REPUL.0>
0

>  <SCORE.INTRA.SOLV>
0.413602

>  <SCORE.INTRA.SOLV.lig_0>
-17.3568

>  <SCORE.INTRA.VDW>
-1.06097

>  <SCORE.INTRA.VDW.0>
1.0768

>  <SCORE.INTRA.norm>
-0.342083

>  <SCORE.RESTR>
0.29425

>  <SCORE.RESTR.CAVITY>
0.29425

>  <SCORE.RESTR.norm>
0.0127935

>  <SCORE.SYSTEM>
0

>  <SCORE.SYSTEM.CONST>
0

>  <SCORE.SYSTEM.DIHEDRAL>
0

>  <SCORE.SYSTEM.SOLV>
0

>  <SCORE.SYSTEM.norm>
0

>  <SCORE.heavy>
23

>  <SCORE.norm>
-0.947556

>  <RMSD>
4.657

$$$$
1uui_lig
 OpenBabel11021811413D
libRbt.so/2013.1/901 2013/11/27
 23 24  0  0  0  0  0  0  0  0999 V2000
  -12.1334    0.8099    2.6374 C   0  0  0  0  0  0  0  0  0  0  0  0
  -12.2869    2.7035    0.4369 O   0  0  0  0  0  0  0  0  0  0  0  0
   -7.2951    0.1169    1.3832 O   0  0  0  0  0  0  0  0  0  0  0  0
  -12.9960    2.0391   -0.6166 C   0  0  0  0  0  0  0  0  0  0  0  0
   -6.7007    0.6505    2.5690 C   0  0  0  0  0  0  0  0  0  0  0  0
  -12.9205    2.0626    2.8836 N   0  0  0  0  0  0  0  0  0  0  0  0
  -12.3578    2.4057   -1.9573 C   0  0  0  0  0  0  0  0  0  0  0  0
  -12.1648    3.0147    3.7422 C   0  0  0  0  0  0  0  0  0  0  0  0
  -14.2281    1.7520    3.5195 C   0  0  0  0  0  0  0  0  0  0  0  0
  -13.1247    1.7371   -3.1026 C   0  0  0  0  0  0  0  0  0  0  0  0
  -11.8488    2.4168    5.1237 C   0  0  0  0  0  0  0  0  0  0  0  0
  -14.0468    1.0347    4.8681 C   0  0  0  0  0  0  0  0  0  0  0  0
  -12.5731    2.1923   -4.3984 N   0  0  0  0  0  0  0  0  0  0  0  0
  -12.6591    1.1905    5.4052 N   0  0  0  0  0  0  0  0  0  0  0  0
  -12.2088    0.2914    6.3897 C   0  0  0  0  0  0  0  0  0  0  0  0
  -12.3980   -1.0513    6.2465 N   0  0  0  0  0  0  0  0  0  0  0  0
  -11.6957    0.7485    7.5676 N   0  0  0  0  0  0  0  0  0  0  0  0
  -11.0365    2.0504    0.6738 C   0  0  0  0  0  0  0  0  0  0  0  0
  -10.9128    1.1169    1.7389 C   0  0  0  0  0  0  0  0  0  0  0  0
   -9.6660    0.4732    1.9736 C   0  0  0  0  0  0  0  0  0  0  0  0
   -8.5485    0.7637    1.1447 C   0  0  0  0  0  0  0  0  0  0  0  0
   -8.6755    1.6953    0.0811 C   0  0  0  0  0  0  0  0  0  0  0  0
   -9.9190    2.3392   -0.1533 C   0  0  0  0  0  0  0  0  0  0  0  0
  2  4  1  0  0  0  0
  3  5  1  0  0  0  0
  4  7  1  0  0  0  0
  6  1  1  0  0  0  0
  7 10  1  0  0  0  0
  8  6  1  0  0  0  0
  8 11  1  0  0  0  0
  9  6  1  0  0  0  0
 10 13  1  0  0  0  0
 11 14  1  0  0  0  0
 12  9  1  0  0  0  0
 14 12  1  0  0  0  0
 14 15  1  0  0  0  0
 15 16  1  0  0  0  0
 15 17  1  0  0  0  0
 18  2  1  0  0  0  0
 18 23  2  0  0  0  0
 19  1  1  0  0  0  0
 19 18  1  0  0  0  0
 20 19  2  0  0  0  0
 21  3  1  0  0  0  0
 21 20  1  0  0  0  0
 22 21  2  0  0  0  0
 22 23  1  0  0  0  0
M  END
>  <CHROM.1>
-75.51624430,-178.42269628,-68.74676455,175.08643566,65.87944438,-144.86905180
137.63426351,48.72582620,-98.34536832,-38.01626365,-72.38371756,-11.43518114
1.40793474,2.09603983,1.65490556,-0.20156073,1.74500040

>  <Name>
1uui_lig

>  <RI>
0

>  <Rbt.Current_Directory>
/home/itssahil/PROJECTS/Mol_Feturizer/New_Systems/rnas/1uui

>  <Rbt.Executable>
rbdock ($Id: //depot/dev/client3/rdock/2013.1/src/exe/rbdock.cxx#4 $)

>  <Rbt.Library>
libRbt.so (2013.1, Build901 2013/11/27)

>  <Rbt.Parameter_File>
/export/apps/rDock/src/rDock_2013.1_src/data/scripts/dock_solv.prm

>  <Rbt.Receptor>
prm/pocket_docking_3.prm

>  <SCORE>
-24.7131

>  <SCORE.INTER>
-16.3536

>  <SCORE.INTER.CONST>
1

>  <SCORE.INTER.POLAR>
-2.14506

>  <SCORE.INTER.ROT>
10

>  <SCORE.INTER.SOLV>
9.06965

>  <SCORE.INTER.VDW>
-17.0421

>  <SCORE.INTER.norm>
-0.711025

>  <SCORE.INTRA>
-8.35957

>  <SCORE.INTRA.DIHEDRAL>
-8.40719

>  <SCORE.INTRA.DIHEDRAL.0>
23.4151

>  <SCORE.INTRA.POLAR>
-0.747207

>  <SCORE.INTRA.POLAR.0>
0

>  <SCORE.INTRA.REPUL>
0

>  <SCORE.INTRA.REPUL.0>
0

>  <SCORE.INTRA.SOLV>
0.300991

>  <SCORE.INTRA.SOLV.lig_0>
-17.3568

>  <SCORE.INTRA.VDW>
-1.76596

>  <SCORE.INTRA.VDW.0>
1.0768

>  <SCORE.INTRA.norm>
-0.363459

>  <SCORE.RESTR>
0

>  <SCORE.RESTR.CAVITY>
0

>  <SCORE.RESTR.norm>
0

>  <SCORE.SYSTEM>
0

>  <SCORE.SYSTEM.CONST>
0

>  <SCORE.SYSTEM.DIHEDRAL>
0

>  <SCORE.SYSTEM.SOLV>
0

>  <SCORE.SYSTEM.norm>
0

>  <SCORE.heavy>
23

>  <SCORE.norm>
-1.07448

>  <RMSD>
4.686

$$$$
1uui_lig
 OpenBabel11021811413D
libRbt.so/2013.1/901 2013/11/27
 23 24  0  0  0  0  0  0  0  0999 V2000
  -12.9236    0.7728    2.1934 C   0  0  0  0  0  0  0  0  0  0  0  0
  -12.7405    2.4148   -0.1986 O   0  0  0  0  0  0  0  0  0  0  0  0
   -7.9298    0.1381    1.8453 O   0  0  0  0  0  0  0  0  0  0  0  0
  -13.1225    1.7547   -1.4120 C   0  0  0  0  0  0  0  0  0  0  0  0
   -7.6037   -1.0398    1.1035 C   0  0  0  0  0  0  0  0  0  0  0  0
  -13.7993    1.9862    2.0922 N   0  0  0  0  0  0  0  0  0  0  0  0
  -12.2249    2.2424   -2.5503 C   0  0  0  0  0  0  0  0  0  0  0  0
  -13.6302    2.8737    3.2748 C   0  0  0  0  0  0  0  0  0  0  0  0
  -15.2292    1.6000    1.9625 C   0  0  0  0  0  0  0  0  0  0  0  0
  -12.1163    1.1621   -3.6311 C   0  0  0  0  0  0  0  0  0  0  0  0
  -14.0129    2.1648    4.5851 C   0  0  0  0  0  0  0  0  0  0  0  0
  -15.7049    0.7727    3.1690 C   0  0  0  0  0  0  0  0  0  0  0  0
  -11.1186    1.5748   -4.6434 N   0  0  0  0  0  0  0  0  0  0  0  0
  -14.7830    0.9053    4.3398 N   0  0  0  0  0  0  0  0  0  0  0  0
  -14.8338   -0.0674    5.3556 C   0  0  0  0  0  0  0  0  0  0  0  0
  -15.9612   -0.2359    6.1037 N   0  0  0  0  0  0  0  0  0  0  0  0
  -13.7175   -0.7688    5.7041 N   0  0  0  0  0  0  0  0  0  0  0  0
  -11.5353    1.8394    0.3138 C   0  0  0  0  0  0  0  0  0  0  0  0
  -11.5750    1.0297    1.4817 C   0  0  0  0  0  0  0  0  0  0  0  0
  -10.3731    0.4632    1.9903 C   0  0  0  0  0  0  0  0  0  0  0  0
   -9.1374    0.7070    1.3315 C   0  0  0  0  0  0  0  0  0  0  0  0
   -9.1013    1.5149    0.1648 C   0  0  0  0  0  0  0  0  0  0  0  0
  -10.2999    2.0817   -0.3430 C   0  0  0  0  0  0  0  0  0  0  0  0
  2  4  1  0  0  0  0
  3  5  1  0  0  0  0
  4  7  1  0  0  0  0
  6  1  1  0  0  0  0
  7 10  1  0  0  0  0
  8  6  1  0  0  0  0
  8 11  1  0  0  0  0
  9  6  1  0  0  0  0
 10 13  1  0  0  0  0
 11 14  1  0  0  0  0
 12  9  1  0  0  0  0
 14 12  1  0  0  0  0
 14 15  1  0  0  0  0
 15 16  1  0  0  0  0
 15 17  1  0  0  0  0
 18  2  1  0  0  0  0
 18 23  2  0  0  0  0
 19  1  1  0  0  0  0
 19 18  1  0  0  0  0
 20 19  2  0  0  0  0
 21  3  1  0  0  0  0
 21 20  1  0  0  0  0
 22 21  2  0  0  0  0
 22 23  1  0  0  0  0
M  END
>  <CHROM.1>
-76.21892484,153.01643025,-92.81341572,-173.11564998,-106.99910381,104.86448058
73.95504750,84.57854016,-108.22383121,-34.59471356,99.21337293,-12.35110903
1.10836855,1.48051451,-2.16646956,0.23182467,-1.30319689

>  <Name>
1uui_lig

>  <RI>
0

>  <Rbt.Current_Directory>
/home/itssahil/PROJECTS/Mol_Feturizer/New_Systems/rnas/1uui

>  <Rbt.Executable>
rbdock ($Id: //depot/dev/client3/rdock/2013.1/src/exe/rbdock.cxx#4 $)

>  <Rbt.Library>
libRbt.so (2013.1, Build901 2013/11/27)

>  <Rbt.Parameter_File>
/export/apps/rDock/src/rDock_2013.1_src/data/scripts/dock_solv.prm

>  <Rbt.Receptor>
prm/pocket_docking_4.prm

>  <SCORE>
-17.4415

>  <SCORE.INTER>
-13.215

>  <SCORE.INTER.CONST>
1

>  <SCORE.INTER.POLAR>
-2.48273

>  <SCORE.INTER.ROT>
10

>  <SCORE.INTER.SOLV>
7.16509

>  <SCORE.INTER.VDW>
-13.1893

>  <SCORE.INTER.norm>
-0.574567

>  <SCORE.INTRA>
-4.2699

>  <SCORE.INTRA.DIHEDRAL>
-0.957109

>  <SCORE.INTRA.DIHEDRAL.0>
23.4151

>  <SCORE.INTRA.POLAR>
-0.881786

>  <SCORE.INTRA.POLAR.0>
0

>  <SCORE.INTRA.REPUL>
0

>  <SCORE.INTRA.REPUL.0>
0

>  <SCORE.INTRA.SOLV>
0.276471

>  <SCORE.INTRA.SOLV.lig_0>
-17.3568

>  <SCORE.INTRA.VDW>
-0.931507

>  <SCORE.INTRA.VDW.0>
1.0768

>  <SCORE.INTRA.norm>
-0.185648

>  <SCORE.RESTR>
0.0433865

>  <SCORE.RESTR.CAVITY>
0.0433865

>  <SCORE.RESTR.norm>
0.00188637

>  <SCORE.SYSTEM>
0

>  <SCORE.SYSTEM.CONST>
0

>  <SCORE.SYSTEM.DIHEDRAL>
0

>  <SCORE.SYSTEM.SOLV>
0

>  <SCORE.SYSTEM.norm>
0

>  <SCORE.heavy>
23

>  <SCORE.norm>
-0.758328

>  <RMSD>
4.711

$$$$
1uui_lig
 OpenBabel11021811413D
libRbt.so/2013.1/901 2013/11/27
 23 24  0  0  0  0  0  0  0  0999 V2000
  -13.1292    1.0561    2.8007 C   0  0  0  0  0  0  0  0  0  0  0  0
  -13.3546    1.3243   -0.0852 O   0  0  0  0  0  0  0  0  0  0  0  0
   -8.7543    3.5454    2.4462 O   0  0  0  0  0  0  0  0  0  0  0  0
  -13.2186   -0.0978   -0.1996 C   0  0  0  0  0  0  0  0  0  0  0  0
   -7.7402    2.5443    2.5620 C   0  0  0  0  0  0  0  0  0  0  0  0
  -14.1182    2.0545    3.3248 N   0  0  0  0  0  0  0  0  0  0  0  0
  -14.3399   -0.6372   -1.0890 C   0  0  0  0  0  0  0  0  0  0  0  0
  -13.4619    3.0442    4.2216 C   0  0  0  0  0  0  0  0  0  0  0  0
  -15.2203    1.3764    4.0569 C   0  0  0  0  0  0  0  0  0  0  0  0
  -14.0999   -0.2218   -2.5440 C   0  0  0  0  0  0  0  0  0  0  0  0
  -12.8238    2.3729    5.4497 C   0  0  0  0  0  0  0  0  0  0  0  0
  -14.6920    0.5628    5.2506 C   0  0  0  0  0  0  0  0  0  0  0  0
  -14.7270   -1.2102   -3.4497 N   0  0  0  0  0  0  0  0  0  0  0  0
  -13.3046    0.9681    5.6369 N   0  0  0  0  0  0  0  0  0  0  0  0
  -12.5323    0.0848    6.4139 C   0  0  0  0  0  0  0  0  0  0  0  0
  -11.6834    0.5577    7.3703 N   0  0  0  0  0  0  0  0  0  0  0  0
  -12.5141   -1.2506    6.1384 N   0  0  0  0  0  0  0  0  0  0  0  0
  -12.1994    1.8774    0.5517 C   0  0  0  0  0  0  0  0  0  0  0  0
  -12.0456    1.7715    1.9610 C   0  0  0  0  0  0  0  0  0  0  0  0
  -10.8971    2.3271    2.5905 C   0  0  0  0  0  0  0  0  0  0  0  0
   -9.9075    2.9857    1.8113 C   0  0  0  0  0  0  0  0  0  0  0  0
  -10.0633    3.0887    0.4041 C   0  0  0  0  0  0  0  0  0  0  0  0
  -11.2095    2.5356   -0.2252 C   0  0  0  0  0  0  0  0  0  0  0  0
  2  4  1  0  0  0  0
  3  5  1  0  0  0  0
  4  7  1  0  0  0  0
  6  1  1  0  0  0  0
  7 10  1  0  0  0  0
  8  6  1  0  0  0  0
  8 11  1  0  0  0  0
  9  6  1  0  0  0  0
 10 13  1  0  0  0  0
 11 14  1  0  0  0  0
 12  9  1  0  0  0  0
 14 12  1  0  0  0  0
 14 15  1  0  0  0  0
 15 16  1  0  0  0  0
 15 17  1  0  0  0  0
 18  2  1  0  0  0  0
 18 23  2  0  0  0  0
 19  1  1  0  0  0  0
 19 18  1  0  0  0  0
 20 19  2  0  0  0  0
 21  3  1  0  0  0  0
 21 20  1  0  0  0  0
 22 21  2  0  0  0  0
 22 23  1  0  0  0  0
M  END
>  <CHROM.1>
-170.37476330,70.93769774,-61.75745925,152.80031408,-63.43935980,24.66842452
-134.21726100,-26.06437130,-77.48221126,-93.84011342,87.07992906,-12.46299068
1.28107799,2.41244309,1.39489233,0.54072557,1.54481558

>  <Name>
1uui_lig

>  <RI>
0

>  <Rbt.Current_Directory>
/home/itssahil/PROJECTS/Mol_Feturizer/New_Systems/rnas/1uui

>  <Rbt.Executable>
rbdock ($Id: //depot/dev/client3/rdock/2013.1/src/exe/rbdock.cxx#4 $)

>  <Rbt.Library>
libRbt.so (2013.1, Build901 2013/11/27)

>  <Rbt.Parameter_File>
/export/apps/rDock/src/rDock_2013.1_src/data/scripts/dock_solv.prm

>  <Rbt.Receptor>
prm/pocket_docking_5.prm

>  <SCORE>
-28.0777

>  <SCORE.INTER>
-22.9134

>  <SCORE.INTER.CONST>
1

>  <SCORE.INTER.POLAR>
-2.72538

>  <SCORE.INTER.ROT>
10

>  <SCORE.INTER.SOLV>
8.87875

>  <SCORE.INTER.VDW>
-19.4172

>  <SCORE.INTER.norm>
-0.996233

>  <SCORE.INTRA>
-5.44561

>  <SCORE.INTRA.DIHEDRAL>
-6.54629

>  <SCORE.INTRA.DIHEDRAL.0>
23.4151

>  <SCORE.INTRA.POLAR>
0

>  <SCORE.INTRA.POLAR.0>
0

>  <SCORE.INTRA.REPUL>
0

>  <SCORE.INTRA.REPUL.0>
0

>  <SCORE.INTRA.SOLV>
0.170206

>  <SCORE.INTRA.SOLV.lig_0>
-17.3568

>  <SCORE.INTRA.VDW>
-2.25757

>  <SCORE.INTRA.VDW.0>
1.0768

>  <SCORE.INTRA.norm>
-0.236766

>  <SCORE.RESTR>
0.281304

>  <SCORE.RESTR.CAVITY>
0.281304

>  <SCORE.RESTR.norm>
0.0122306

>  <SCORE.SYSTEM>
0

>  <SCORE.SYSTEM.CONST>
0

>  <SCORE.SYSTEM.DIHEDRAL>
0

>  <SCORE.SYSTEM.SOLV>
0

>  <SCORE.SYSTEM.norm>
0

>  <SCORE.heavy>
23

>  <SCORE.norm>
-1.22077

>  <RMSD>
4.711

$$$$
1uui_lig
 OpenBabel11021811413D
libRbt.so/2013.1/901 2013/11/27
 23 24  0  0  0  0  0  0  0  0999 V2000
  -10.9518    0.9124    2.2140 C   0  0  0  0  0  0  0  0  0  0  0  0
  -10.9750    1.2455   -0.6739 O   0  0  0  0  0  0  0  0  0  0  0  0
   -6.9211   -2.0595    1.5948 O   0  0  0  0  0  0  0  0  0  0  0  0
  -10.3757    2.2605   -1.4892 C   0  0  0  0  0  0  0  0  0  0  0  0
   -5.9657   -1.2410    2.2740 C   0  0  0  0  0  0  0  0  0  0  0  0
  -12.3396    0.5696    1.7601 N   0  0  0  0  0  0  0  0  0  0  0  0
  -11.4797    3.0951   -2.1403 C   0  0  0  0  0  0  0  0  0  0  0  0
  -13.3198    1.6013    2.1953 C   0  0  0  0  0  0  0  0  0  0  0  0
  -12.7552   -0.7598    2.2801 C   0  0  0  0  0  0  0  0  0  0  0  0
  -12.3114    2.2192   -3.0827 C   0  0  0  0  0  0  0  0  0  0  0  0
  -13.3785    1.7290    3.7270 C   0  0  0  0  0  0  0  0  0  0  0  0
  -12.7375   -0.7983    3.8178 C   0  0  0  0  0  0  0  0  0  0  0  0
  -13.4427    3.0079   -3.6201 N   0  0  0  0  0  0  0  0  0  0  0  0
  -12.7203    0.5737    4.4140 N   0  0  0  0  0  0  0  0  0  0  0  0
  -12.3024    0.7271    5.7490 C   0  0  0  0  0  0  0  0  0  0  0  0
  -11.5844   -0.2507    6.3714 N   0  0  0  0  0  0  0  0  0  0  0  0
  -12.7189    1.7929    6.4907 N   0  0  0  0  0  0  0  0  0  0  0  0
   -9.9611    0.4137   -0.1027 C   0  0  0  0  0  0  0  0  0  0  0  0
   -9.9091    0.2214    1.3049 C   0  0  0  0  0  0  0  0  0  0  0  0
   -8.8962   -0.6032    1.8688 C   0  0  0  0  0  0  0  0  0  0  0  0
   -7.9400   -1.2322    1.0259 C   0  0  0  0  0  0  0  0  0  0  0  0
   -7.9953   -1.0392   -0.3794 C   0  0  0  0  0  0  0  0  0  0  0  0
   -9.0051   -0.2156   -0.9432 C   0  0  0  0  0  0  0  0  0  0  0  0
  2  4  1  0  0  0  0
  3  5  1  0  0  0  0
  4  7  1  0  0  0  0
  6  1  1  0  0  0  0
  7 10  1  0  0  0  0
  8  6  1  0  0  0  0
  8 11  1  0  0  0  0
  9  6  1  0  0  0  0
 10 13  1  0  0  0  0
 11 14  1  0  0  0  0
 12  9  1  0  0  0  0
 14 12  1  0  0  0  0
 14 15  1  0  0  0  0
 15 16  1  0  0  0  0
 15 17  1  0  0  0  0
 18  2  1  0  0  0  0
 18 23  2  0  0  0  0
 19  1  1  0  0  0  0
 19 18  1  0  0  0  0
 20 19  2  0  0  0  0
 21  3  1  0  0  0  0
 21 20  1  0  0  0  0
 22 21  2  0  0  0  0
 22 23  1  0  0  0  0
M  END
>  <CHROM.1>
177.36672323,-63.69149080,-156.28222400,175.35512298,61.79746096,-173.59482174
-13.81112112,68.14734819,125.49912067,54.47983094,-72.01920966,-10.92225237
0.56355817,1.52220677,1.74473759,-0.48964456,1.82408111

>  <Name>
1uui_lig

>  <RI>
0

>  <Rbt.Current_Directory>
/home/itssahil/PROJECTS/Mol_Feturizer/New_Systems/rnas/1uui

>  <Rbt.Executable>
rbdock ($Id: //depot/dev/client3/rdock/2013.1/src/exe/rbdock.cxx#4 $)

>  <Rbt.Library>
libRbt.so (2013.1, Build901 2013/11/27)

>  <Rbt.Parameter_File>
/export/apps/rDock/src/rDock_2013.1_src/data/scripts/dock_solv.prm

>  <Rbt.Receptor>
prm/pocket_docking_2.prm

>  <SCORE>
-28.3349

>  <SCORE.INTER>
-20.91

>  <SCORE.INTER.CONST>
1

>  <SCORE.INTER.POLAR>
-2.46993

>  <SCORE.INTER.ROT>
10

>  <SCORE.INTER.SOLV>
7.85661

>  <SCORE.INTER.VDW>
-18.5924

>  <SCORE.INTER.norm>
-0.90913

>  <SCORE.INTRA>
-8.11181

>  <SCORE.INTRA.DIHEDRAL>
-10.2056

>  <SCORE.INTRA.DIHEDRAL.0>
23.4151

>  <SCORE.INTRA.POLAR>
-0.614372

>  <SCORE.INTRA.POLAR.0>
0

>  <SCORE.INTRA.REPUL>
0

>  <SCORE.INTRA.REPUL.0>
0

>  <SCORE.INTRA.SOLV>
0.249648

>  <SCORE.INTRA.SOLV.lig_0>
-17.3568

>  <SCORE.INTRA.VDW>
-1.04497

>  <SCORE.INTRA.VDW.0>
1.0768

>  <SCORE.INTRA.norm>
-0.352687

>  <SCORE.RESTR>
0.686928

>  <SCORE.RESTR.CAVITY>
0.686928

>  <SCORE.RESTR.norm>
0.0298665

>  <SCORE.SYSTEM>
0

>  <SCORE.SYSTEM.CONST>
0

>  <SCORE.SYSTEM.DIHEDRAL>
0

>  <SCORE.SYSTEM.SOLV>
0

>  <SCORE.SYSTEM.norm>
0

>  <SCORE.heavy>
23

>  <SCORE.norm>
-1.23195

>  <RMSD>
4.713

$$$$
1uui_lig
 OpenBabel11021811413D
libRbt.so/2013.1/901 2013/11/27
 23 24  0  0  0  0  0  0  0  0999 V2000
  -12.5876    0.7913    1.8970 C   0  0  0  0  0  0  0  0  0  0  0  0
  -12.5379    1.3382   -0.9578 O   0  0  0  0  0  0  0  0  0  0  0  0
   -7.8464   -0.8672    1.4151 O   0  0  0  0  0  0  0  0  0  0  0  0
  -12.4119    2.7626   -1.0535 C   0  0  0  0  0  0  0  0  0  0  0  0
   -7.4964   -2.0810    0.7457 C   0  0  0  0  0  0  0  0  0  0  0  0
  -13.8357    0.5040    1.1164 N   0  0  0  0  0  0  0  0  0  0  0  0
  -11.6397    3.1116   -2.3267 C   0  0  0  0  0  0  0  0  0  0  0  0
  -14.9889    1.2891    1.6347 C   0  0  0  0  0  0  0  0  0  0  0  0
  -14.1649   -0.9453    1.1556 C   0  0  0  0  0  0  0  0  0  0  0  0
  -12.4300    2.6599   -3.5589 C   0  0  0  0  0  0  0  0  0  0  0  0
  -15.3019    0.9507    3.1021 C   0  0  0  0  0  0  0  0  0  0  0  0
  -14.3841   -1.4385    2.5961 C   0  0  0  0  0  0  0  0  0  0  0  0
  -12.4917    1.1815   -3.5914 N   0  0  0  0  0  0  0  0  0  0  0  0
  -14.6256   -0.3083    3.5462 N   0  0  0  0  0  0  0  0  0  0  0  0
  -14.4437   -0.5308    4.9239 C   0  0  0  0  0  0  0  0  0  0  0  0
  -15.5019   -0.4883    5.7826 N   0  0  0  0  0  0  0  0  0  0  0  0
  -13.1917   -0.6598    5.4488 N   0  0  0  0  0  0  0  0  0  0  0  0
  -11.3633    0.7812   -0.3609 C   0  0  0  0  0  0  0  0  0  0  0  0
  -11.3400    0.4975    1.0320 C   0  0  0  0  0  0  0  0  0  0  0  0
  -10.1680   -0.0522    1.6219 C   0  0  0  0  0  0  0  0  0  0  0  0
   -9.0247   -0.3162    0.8198 C   0  0  0  0  0  0  0  0  0  0  0  0
   -9.0514   -0.0330   -0.5710 C   0  0  0  0  0  0  0  0  0  0  0  0
  -10.2201    0.5166   -1.1607 C   0  0  0  0  0  0  0  0  0  0  0  0
  2  4  1  0  0  0  0
  3  5  1  0  0  0  0
  4  7  1  0  0  0  0
  6  1  1  0  0  0  0
  7 10  1  0  0  0  0
  8  6  1  0  0  0  0
  8 11  1  0  0  0  0
  9  6  1  0  0  0  0
 10 13  1  0  0  0  0
 11 14  1  0  0  0  0
 12  9  1  0  0  0  0
 14 12  1  0  0  0  0
 14 15  1  0  0  0  0
 15 16  1  0  0  0  0
 15 17  1  0  0  0  0
 18  2  1  0  0  0  0
 18 23  2  0  0  0  0
 19  1  1  0  0  0  0
 19 18  1  0  0  0  0
 20 19  2  0  0  0  0
 21  3  1  0  0  0  0
 21 20  1  0  0  0  0
 22 21  2  0  0  0  0
 22 23  1  0  0  0  0
M  END
>  <CHROM.1>
84.15841290,63.49358206,-155.37943810,-67.09542276,-70.49031647,54.57842437
-137.22698819,-53.66800700,96.42621628,36.36719208,123.62238007,-12.25879803
0.36699445,1.02217028,2.19326501,-0.29895434,2.00962753

>  <Name>
1uui_lig

>  <RI>
0

>  <Rbt.Current_Directory>
/home/itssahil/PROJECTS/Mol_Feturizer/New_Systems/rnas/1uui

>  <Rbt.Executable>
rbdock ($Id: //depot/dev/client3/rdock/2013.1/src/exe/rbdock.cxx#4 $)

>  <Rbt.Library>
libRbt.so (2013.1, Build901 2013/11/27)

>  <Rbt.Parameter_File>
/export/apps/rDock/src/rDock_2013.1_src/data/scripts/dock_solv.prm

>  <Rbt.Receptor>
prm/pocket_docking_3.prm

>  <SCORE>
-24.9115

>  <SCORE.INTER>
-15.3308

>  <SCORE.INTER.CONST>
1

>  <SCORE.INTER.POLAR>
-2.11185

>  <SCORE.INTER.ROT>
10

>  <SCORE.INTER.SOLV>
6.79888

>  <SCORE.INTER.VDW>
-15.714

>  <SCORE.INTER.norm>
-0.666556

>  <SCORE.INTRA>
-9.76457

>  <SCORE.INTRA.DIHEDRAL>
-6.79568

>  <SCORE.INTRA.DIHEDRAL.0>
23.4151

>  <SCORE.INTRA.POLAR>
-1.59175

>  <SCORE.INTRA.POLAR.0>
0

>  <SCORE.INTRA.REPUL>
0

>  <SCORE.INTRA.REPUL.0>
0

>  <SCORE.INTRA.SOLV>
1.01467

>  <SCORE.INTRA.SOLV.lig_0>
-17.3568

>  <SCORE.INTRA.VDW>
-1.46211

>  <SCORE.INTRA.VDW.0>
1.0768

>  <SCORE.INTRA.norm>
-0.424546

>  <SCORE.RESTR>
0.183818

>  <SCORE.RESTR.CAVITY>
0.183818

>  <SCORE.RESTR.norm>
0.00799209

>  <SCORE.SYSTEM>
0

>  <SCORE.SYSTEM.CONST>
0

>  <SCORE.SYSTEM.DIHEDRAL>
0

>  <SCORE.SYSTEM.SOLV>
0

>  <SCORE.SYSTEM.norm>
0

>  <SCORE.heavy>
23

>  <SCORE.norm>
-1.08311

>  <RMSD>
4.713

$$$$
1uui_lig
 OpenBabel11021811413D
libRbt.so/2013.1/901 2013/11/27
 23 24  0  0  0  0  0  0  0  0999 V2000
  -13.0028    1.5602    3.2614 C   0  0  0  0  0  0  0  0  0  0  0  0
  -12.9600    0.1153    0.7391 O   0  0  0  0  0  0  0  0  0  0  0  0
   -8.0035    2.0521    2.7851 O   0  0  0  0  0  0  0  0  0  0  0  0
  -13.1389    0.5655   -0.6097 C   0  0  0  0  0  0  0  0  0  0  0  0
   -7.9840    3.4798    2.7108 C   0  0  0  0  0  0  0  0  0  0  0  0
  -13.7700    0.2789    3.3998 N   0  0  0  0  0  0  0  0  0  0  0  0
  -14.1303   -0.3591   -1.3179 C   0  0  0  0  0  0  0  0  0  0  0  0
  -15.0109    0.4765    4.1972 C   0  0  0  0  0  0  0  0  0  0  0  0
  -12.9348   -0.7743    4.0352 C   0  0  0  0  0  0  0  0  0  0  0  0
  -14.1904   -0.0179   -2.8102 C   0  0  0  0  0  0  0  0  0  0  0  0
  -14.7060    0.9614    5.6247 C   0  0  0  0  0  0  0  0  0  0  0  0
  -12.4605   -0.3534    5.4367 C   0  0  0  0  0  0  0  0  0  0  0  0
  -14.7914   -1.1491   -3.5516 N   0  0  0  0  0  0  0  0  0  0  0  0
  -13.2641    0.7839    5.9838 N   0  0  0  0  0  0  0  0  0  0  0  0
  -12.7296    1.5445    7.0403 C   0  0  0  0  0  0  0  0  0  0  0  0
  -13.2963    2.7308    7.4014 N   0  0  0  0  0  0  0  0  0  0  0  0
  -11.5582    1.1813    7.6364 N   0  0  0  0  0  0  0  0  0  0  0  0
  -11.7171    0.5989    1.2563 C   0  0  0  0  0  0  0  0  0  0  0  0
  -11.6881    1.3117    2.4861 C   0  0  0  0  0  0  0  0  0  0  0  0
  -10.4502    1.7946    2.9943 C   0  0  0  0  0  0  0  0  0  0  0  0
   -9.2470    1.5642    2.2735 C   0  0  0  0  0  0  0  0  0  0  0  0
   -9.2790    0.8510    1.0465 C   0  0  0  0  0  0  0  0  0  0  0  0
  -10.5140    0.3696    0.5377 C   0  0  0  0  0  0  0  0  0  0  0  0
  2  4  1  0  0  0  0
  3  5  1  0  0  0  0
  4  7  1  0  0  0  0
  6  1  1  0  0  0  0
  7 10  1  0  0  0  0
  8  6  1  0  0  0  0
  8 11  1  0  0  0  0
  9  6  1  0  0  0  0
 10 13  1  0  0  0  0
 11 14  1  0  0  0  0
 12  9  1  0  0  0  0
 14 12  1  0  0  0  0
 14 15  1  0  0  0  0
 15 16  1  0  0  0  0
 15 17  1  0  0  0  0
 18  2  1  0  0  0  0
 18 23  2  0  0  0  0
 19  1  1  0  0  0  0
 19 18  1  0  0  0  0
 20 19  2  0  0  0  0
 21  3  1  0  0  0  0
 21 20  1  0  0  0  0
 22 21  2  0  0  0  0
 22 23  1  0  0  0  0
M  END
>  <CHROM.1>
157.96195983,-172.18144299,177.37788490,162.12592301,-58.88052459,-24.24908399
-12.17444698,-53.47844903,126.84163470,49.44783922,-69.15482347,-12.25059750
0.84411913,2.71964079,1.42192108,0.32517425,1.41008355

>  <Name>
1uui_lig

>  <RI>
0

>  <Rbt.Current_Directory>
/home/itssahil/PROJECTS/Mol_Feturizer/New_Systems/rnas/1uui

>  <Rbt.Executable>
rbdock ($Id: //depot/dev/client3/rdock/2013.1/src/exe/rbdock.cxx#4 $)

>  <Rbt.Library>
libRbt.so (2013.1, Build901 2013/11/27)

>  <Rbt.Parameter_File>
/export/apps/rDock/src/rDock_2013.1_src/data/scripts/dock_solv.prm

>  <Rbt.Receptor>
prm/pocket_docking_6.prm

>  <SCORE>
-27.8785

>  <SCORE.INTER>
-21.1745

>  <SCORE.INTER.CONST>
1

>  <SCORE.INTER.POLAR>
-1.63763

>  <SCORE.INTER.ROT>
10

>  <SCORE.INTER.SOLV>
9.04685

>  <SCORE.INTER.VDW>
-21.9399

>  <SCORE.INTER.norm>
-0.92063

>  <SCORE.INTRA>
-6.75307

>  <SCORE.INTRA.DIHEDRAL>
-8.21559

>  <SCORE.INTRA.DIHEDRAL.0>
23.4151

>  <SCORE.INTRA.POLAR>
-0.55031

>  <SCORE.INTRA.POLAR.0>
0

>  <SCORE.INTRA.REPUL>
0

>  <SCORE.INTRA.REPUL.0>
0

>  <SCORE.INTRA.SOLV>
0.333906

>  <SCORE.INTRA.SOLV.lig_0>
-17.3568

>  <SCORE.INTRA.VDW>
-0.941172

>  <SCORE.INTRA.VDW.0>
1.0768

>  <SCORE.INTRA.norm>
-0.293612

>  <SCORE.RESTR>
0.0490902

>  <SCORE.RESTR.CAVITY>
0.0490902

>  <SCORE.RESTR.norm>
0.00213435

>  <SCORE.SYSTEM>
0

>  <SCORE.SYSTEM.CONST>
0

>  <SCORE.SYSTEM.DIHEDRAL>
0

>  <SCORE.SYSTEM.SOLV>
0

>  <SCORE.SYSTEM.norm>
0

>  <SCORE.heavy>
23

>  <SCORE.norm>
-1.21211

>  <RMSD>
4.720

$$$$
1uui_lig
 OpenBabel11021811413D
libRbt.so/2013.1/901 2013/11/27
 23 24  0  0  0  0  0  0  0  0999 V2000
  -10.6427    0.9073    2.3575 C   0  0  0  0  0  0  0  0  0  0  0  0
  -10.5839    1.6406   -0.4550 O   0  0  0  0  0  0  0  0  0  0  0  0
   -6.9671   -2.3917    1.3236 O   0  0  0  0  0  0  0  0  0  0  0  0
  -10.5127    1.7671   -1.8808 C   0  0  0  0  0  0  0  0  0  0  0  0
   -5.8657   -1.7781    1.9976 C   0  0  0  0  0  0  0  0  0  0  0  0
  -12.0024    1.0462    1.7400 N   0  0  0  0  0  0  0  0  0  0  0  0
  -11.4590    2.8809   -2.3316 C   0  0  0  0  0  0  0  0  0  0  0  0
  -12.7974    2.1056    2.4186 C   0  0  0  0  0  0  0  0  0  0  0  0
  -12.7442   -0.2412    1.7933 C   0  0  0  0  0  0  0  0  0  0  0  0
  -12.1153    2.5032   -3.6634 C   0  0  0  0  0  0  0  0  0  0  0  0
  -13.0221    1.7911    3.9073 C   0  0  0  0  0  0  0  0  0  0  0  0
  -12.9296   -0.7294    3.2402 C   0  0  0  0  0  0  0  0  0  0  0  0
  -12.9755    1.3144   -3.4705 N   0  0  0  0  0  0  0  0  0  0  0  0
  -12.7072    0.3653    4.2354 N   0  0  0  0  0  0  0  0  0  0  0  0
  -12.4392    0.0205    5.5732 C   0  0  0  0  0  0  0  0  0  0  0  0
  -12.5085   -1.2771    5.9860 N   0  0  0  0  0  0  0  0  0  0  0  0
  -12.2369    0.9867    6.5140 N   0  0  0  0  0  0  0  0  0  0  0  0
   -9.6800    0.6264   -0.0072 C   0  0  0  0  0  0  0  0  0  0  0  0
   -9.6717    0.2348    1.3595 C   0  0  0  0  0  0  0  0  0  0  0  0
   -8.7678   -0.7711    1.8011 C   0  0  0  0  0  0  0  0  0  0  0  0
   -7.8765   -1.3817    0.8774 C   0  0  0  0  0  0  0  0  0  0  0  0
   -7.8882   -0.9895   -0.4869 C   0  0  0  0  0  0  0  0  0  0  0  0
   -8.7890    0.0151   -0.9285 C   0  0  0  0  0  0  0  0  0  0  0  0
  2  4  1  0  0  0  0
  3  5  1  0  0  0  0
  4  7  1  0  0  0  0
  6  1  1  0  0  0  0
  7 10  1  0  0  0  0
  8  6  1  0  0  0  0
  8 11  1  0  0  0  0
  9  6  1  0  0  0  0
 10 13  1  0  0  0  0
 11 14  1  0  0  0  0
 12  9  1  0  0  0  0
 14 12  1  0  0  0  0
 14 15  1  0  0  0  0
 15 16  1  0  0  0  0
 15 17  1  0  0  0  0
 18  2  1  0  0  0  0
 18 23  2  0  0  0  0
 19  1  1  0  0  0  0
 19 18  1  0  0  0  0
 20 19  2  0  0  0  0
 21  3  1  0  0  0  0
 21 20  1  0  0  0  0
 22 21  2  0  0  0  0
 22 23  1  0  0  0  0
M  END
>  <CHROM.1>
-178.51850810,-143.07882196,-158.57250509,64.75561896,-57.40287270,161.95052506
112.32402357,-47.02049415,-173.93719756,42.83322929,-77.67333581,-10.80025631
0.38215134,1.40408335,-1.85178534,0.47901194,-1.28897222

>  <Name>
1uui_lig

>  <RI>
0

>  <Rbt.Current_Directory>
/home/itssahil/PROJECTS/Mol_Feturizer/New_Systems/rnas/1uui

>  <Rbt.Executable>
rbdock ($Id: //depot/dev/client3/rdock/2013.1/src/exe/rbdock.cxx#4 $)

>  <Rbt.Library>
libRbt.so (2013.1, Build901 2013/11/27)

>  <Rbt.Parameter_File>
/export/apps/rDock/src/rDock_2013.1_src/data/scripts/dock_solv.prm

>  <Rbt.Receptor>
prm/pocket_docking_2.prm

>  <SCORE>
-23.8713

>  <SCORE.INTER>
-19.5902

>  <SCORE.INTER.CONST>
1

>  <SCORE.INTER.POLAR>
-1.93137

>  <SCORE.INTER.ROT>
10

>  <SCORE.INTER.SOLV>
9.09587

>  <SCORE.INTER.VDW>
-19.9208

>  <SCORE.INTER.norm>
-0.851747

>  <SCORE.INTRA>
-5.10881

>  <SCORE.INTRA.DIHEDRAL>
-9.73059

>  <SCORE.INTRA.DIHEDRAL.0>
23.4151

>  <SCORE.INTRA.POLAR>
-0.802785

>  <SCORE.INTRA.POLAR.0>
0

>  <SCORE.INTRA.REPUL>
0

>  <SCORE.INTRA.REPUL.0>
0

>  <SCORE.INTRA.SOLV>
0.450513

>  <SCORE.INTRA.SOLV.lig_0>
-17.3568

>  <SCORE.INTRA.VDW>
2.2607

>  <SCORE.INTRA.VDW.0>
1.0768

>  <SCORE.INTRA.norm>
-0.222122

>  <SCORE.RESTR>
0.827653

>  <SCORE.RESTR.CAVITY>
0.827653

>  <SCORE.RESTR.norm>
0.0359849

>  <SCORE.SYSTEM>
0

>  <SCORE.SYSTEM.CONST>
0

>  <SCORE.SYSTEM.DIHEDRAL>
0

>  <SCORE.SYSTEM.SOLV>
0

>  <SCORE.SYSTEM.norm>
0

>  <SCORE.heavy>
23

>  <SCORE.norm>
-1.03788

>  <RMSD>
4.722

$$$$
1uui_lig
 OpenBabel11021811413D
libRbt.so/2013.1/901 2013/11/27
 23 24  0  0  0  0  0  0  0  0999 V2000
  -11.0411    0.5805    1.8482 C   0  0  0  0  0  0  0  0  0  0  0  0
  -11.0358    1.4594   -0.9228 O   0  0  0  0  0  0  0  0  0  0  0  0
   -6.3387   -1.0791    1.0765 O   0  0  0  0  0  0  0  0  0  0  0  0
  -11.6387    0.6503   -1.9406 C   0  0  0  0  0  0  0  0  0  0  0  0
   -6.5050   -2.4984    1.0331 C   0  0  0  0  0  0  0  0  0  0  0  0
  -12.0690   -0.4794    1.5847 N   0  0  0  0  0  0  0  0  0  0  0  0
  -12.6843    1.4814   -2.6858 C   0  0  0  0  0  0  0  0  0  0  0  0
  -13.3738    0.1199    1.1934 C   0  0  0  0  0  0  0  0  0  0  0  0
  -12.2589   -1.3440    2.7793 C   0  0  0  0  0  0  0  0  0  0  0  0
  -11.9917    2.5174   -3.5769 C   0  0  0  0  0  0  0  0  0  0  0  0
  -13.9474    1.0215    2.2998 C   0  0  0  0  0  0  0  0  0  0  0  0
  -12.7207   -0.5306    4.0005 C   0  0  0  0  0  0  0  0  0  0  0  0
  -11.3881    3.5716   -2.7314 N   0  0  0  0  0  0  0  0  0  0  0  0
  -13.2591    0.8100    3.6117 N   0  0  0  0  0  0  0  0  0  0  0  0
  -13.3433    1.8165    4.5918 C   0  0  0  0  0  0  0  0  0  0  0  0
  -14.5444    2.1575    5.1395 N   0  0  0  0  0  0  0  0  0  0  0  0
  -12.2502    2.5639    4.9175 N   0  0  0  0  0  0  0  0  0  0  0  0
   -9.8598    0.8188   -0.4201 C   0  0  0  0  0  0  0  0  0  0  0  0
   -9.8152    0.3724    0.9290 C   0  0  0  0  0  0  0  0  0  0  0  0
   -8.6418   -0.2601    1.4258 C   0  0  0  0  0  0  0  0  0  0  0  0
   -7.5184   -0.4445    0.5747 C   0  0  0  0  0  0  0  0  0  0  0  0
   -7.5665    0.0012   -0.7723 C   0  0  0  0  0  0  0  0  0  0  0  0
   -8.7367    0.6336   -1.2689 C   0  0  0  0  0  0  0  0  0  0  0  0
  2  4  1  0  0  0  0
  3  5  1  0  0  0  0
  4  7  1  0  0  0  0
  6  1  1  0  0  0  0
  7 10  1  0  0  0  0
  8  6  1  0  0  0  0
  8 11  1  0  0  0  0
  9  6  1  0  0  0  0
 10 13  1  0  0  0  0
 11 14  1  0  0  0  0
 12  9  1  0  0  0  0
 14 12  1  0  0  0  0
 14 15  1  0  0  0  0
 15 16  1  0  0  0  0
 15 17  1  0  0  0  0
 18  2  1  0  0  0  0
 18 23  2  0  0  0  0
 19  1  1  0  0  0  0
 19 18  1  0  0  0  0
 20 19  2  0  0  0  0
 21  3  1  0  0  0  0
 21 20  1  0  0  0  0
 22 21  2  0  0  0  0
 22 23  1  0  0  0  0
M  END
>  <CHROM.1>
-166.86345706,72.26486698,-122.35112081,-71.29308676,44.95940591,63.60906148
-69.26416149,-87.53434020,-114.58855148,80.30260821,82.14200563,-11.02539646
0.64723389,1.00528965,-2.44742005,0.45648960,-1.28117202

>  <Name>
1uui_lig

>  <RI>
0

>  <Rbt.Current_Directory>
/home/itssahil/PROJECTS/Mol_Feturizer/New_Systems/rnas/1uui

>  <Rbt.Executable>
rbdock ($Id: //depot/dev/client3/rdock/2013.1/src/exe/rbdock.cxx#4 $)

>  <Rbt.Library>
libRbt.so (2013.1, Build901 2013/11/27)

>  <Rbt.Parameter_File>
/export/apps/rDock/src/rDock_2013.1_src/data/scripts/dock_solv.prm

>  <Rbt.Receptor>
prm/pocket_docking_2.prm

>  <SCORE>
-14.5311

>  <SCORE.INTER>
-7.08048

>  <SCORE.INTER.CONST>
1

>  <SCORE.INTER.POLAR>
-0.727819

>  <SCORE.INTER.ROT>
10

>  <SCORE.INTER.SOLV>
4.20346

>  <SCORE.INTER.VDW>
-13.9621

>  <SCORE.INTER.norm>
-0.307847

>  <SCORE.INTRA>
-7.75472

>  <SCORE.INTRA.DIHEDRAL>
-4.42569

>  <SCORE.INTRA.DIHEDRAL.0>
23.4151

>  <SCORE.INTRA.POLAR>
-0.728468

>  <SCORE.INTRA.POLAR.0>
0

>  <SCORE.INTRA.REPUL>
0

>  <SCORE.INTRA.REPUL.0>
0

>  <SCORE.INTRA.SOLV>
0.639354

>  <SCORE.INTRA.SOLV.lig_0>
-17.3568

>  <SCORE.INTRA.VDW>
-3.38476

>  <SCORE.INTRA.VDW.0>
1.0768

>  <SCORE.INTRA.norm>
-0.337162

>  <SCORE.RESTR>
0.304098

>  <SCORE.RESTR.CAVITY>
0.304098

>  <SCORE.RESTR.norm>
0.0132217

>  <SCORE.SYSTEM>
0

>  <SCORE.SYSTEM.CONST>
0

>  <SCORE.SYSTEM.DIHEDRAL>
0

>  <SCORE.SYSTEM.SOLV>
0

>  <SCORE.SYSTEM.norm>
0

>  <SCORE.heavy>
23

>  <SCORE.norm>
-0.631787

>  <RMSD>
4.732

$$$$
1uui_lig
 OpenBabel11021811413D
libRbt.so/2013.1/901 2013/11/27
 23 24  0  0  0  0  0  0  0  0999 V2000
  -10.9477    0.6102    1.9516 C   0  0  0  0  0  0  0  0  0  0  0  0
  -10.5380    1.6457   -0.7338 O   0  0  0  0  0  0  0  0  0  0  0  0
   -6.8134   -2.1937    1.2388 O   0  0  0  0  0  0  0  0  0  0  0  0
  -10.8172    1.3942   -2.1168 C   0  0  0  0  0  0  0  0  0  0  0  0
   -5.8768   -1.5462    2.1034 C   0  0  0  0  0  0  0  0  0  0  0  0
  -12.1380   -0.2743    1.7273 N   0  0  0  0  0  0  0  0  0  0  0  0
  -11.8847    0.3039   -2.2210 C   0  0  0  0  0  0  0  0  0  0  0  0
  -13.3519    0.5254    1.4083 C   0  0  0  0  0  0  0  0  0  0  0  0
  -12.4021   -1.1220    2.9198 C   0  0  0  0  0  0  0  0  0  0  0  0
  -13.2626    0.8869   -1.8914 C   0  0  0  0  0  0  0  0  0  0  0  0
  -13.7266    1.4831    2.5521 C   0  0  0  0  0  0  0  0  0  0  0  0
  -12.6746   -0.2709    4.1718 C   0  0  0  0  0  0  0  0  0  0  0  0
  -13.6538    1.8537   -2.9414 N   0  0  0  0  0  0  0  0  0  0  0  0
  -13.0178    1.1436    3.8257 N   0  0  0  0  0  0  0  0  0  0  0  0
  -12.8994    2.1322    4.8202 C   0  0  0  0  0  0  0  0  0  0  0  0
  -13.9291    2.3861    5.6771 N   0  0  0  0  0  0  0  0  0  0  0  0
  -11.8078    2.9484    4.8639 N   0  0  0  0  0  0  0  0  0  0  0  0
   -9.6069    0.6794   -0.2381 C   0  0  0  0  0  0  0  0  0  0  0  0
   -9.7659    0.1449    1.0696 C   0  0  0  0  0  0  0  0  0  0  0  0
   -8.8348   -0.8125    1.5599 C   0  0  0  0  0  0  0  0  0  0  0  0
   -7.7497   -1.2323    0.7434 C   0  0  0  0  0  0  0  0  0  0  0  0
   -7.5944   -0.6976   -0.5624 C   0  0  0  0  0  0  0  0  0  0  0  0
   -8.5223    0.2587   -1.0524 C   0  0  0  0  0  0  0  0  0  0  0  0
  2  4  1  0  0  0  0
  3  5  1  0  0  0  0
  4  7  1  0  0  0  0
  6  1  1  0  0  0  0
  7 10  1  0  0  0  0
  8  6  1  0  0  0  0
  8 11  1  0  0  0  0
  9  6  1  0  0  0  0
 10 13  1  0  0  0  0
 11 14  1  0  0  0  0
 12  9  1  0  0  0  0
 14 12  1  0  0  0  0
 14 15  1  0  0  0  0
 15 16  1  0  0  0  0
 15 17  1  0  0  0  0
 18  2  1  0  0  0  0
 18 23  2  0  0  0  0
 19  1  1  0  0  0  0
 19 18  1  0  0  0  0
 20 19  2  0  0  0  0
 21  3  1  0  0  0  0
 21 20  1  0  0  0  0
 22 21  2  0  0  0  0
 22 23  1  0  0  0  0
M  END
>  <CHROM.1>
82.51613891,76.26527226,-127.94703367,66.94456322,-173.48736600,81.48456950
111.37871362,-170.15541053,-140.58860125,90.14228869,-79.58879734,-11.01117990
0.48476542,1.26942272,-2.49134729,0.42755993,-1.55267021

>  <Name>
1uui_lig

>  <RI>
0

>  <Rbt.Current_Directory>
/home/itssahil/PROJECTS/Mol_Feturizer/New_Systems/rnas/1uui

>  <Rbt.Executable>
rbdock ($Id: //depot/dev/client3/rdock/2013.1/src/exe/rbdock.cxx#4 $)

>  <Rbt.Library>
libRbt.so (2013.1, Build901 2013/11/27)

>  <Rbt.Parameter_File>
/export/apps/rDock/src/rDock_2013.1_src/data/scripts/dock_solv.prm

>  <Rbt.Receptor>
prm/pocket_docking_3.prm

>  <SCORE>
-16.2724

>  <SCORE.INTER>
-11.9282

>  <SCORE.INTER.CONST>
1

>  <SCORE.INTER.POLAR>
-1.49225

>  <SCORE.INTER.ROT>
10

>  <SCORE.INTER.SOLV>
4.66781

>  <SCORE.INTER.VDW>
-14.8006

>  <SCORE.INTER.norm>
-0.518615

>  <SCORE.INTRA>
-4.34429

>  <SCORE.INTRA.DIHEDRAL>
-5.54833

>  <SCORE.INTRA.DIHEDRAL.0>
23.4151

>  <SCORE.INTRA.POLAR>
0

>  <SCORE.INTRA.POLAR.0>
0

>  <SCORE.INTRA.REPUL>
0

>  <SCORE.INTRA.REPUL.0>
0

>  <SCORE.INTRA.SOLV>
0.328693

>  <SCORE.INTRA.SOLV.lig_0>
-17.3568

>  <SCORE.INTRA.VDW>
-1.73447

>  <SCORE.INTRA.VDW.0>
1.0768

>  <SCORE.INTRA.norm>
-0.188882

>  <SCORE.RESTR>
0

>  <SCORE.RESTR.CAVITY>
0

>  <SCORE.RESTR.norm>
0

>  <SCORE.SYSTEM>
0

>  <SCORE.SYSTEM.CONST>
0

>  <SCORE.SYSTEM.DIHEDRAL>
0

>  <SCORE.SYSTEM.SOLV>
0

>  <SCORE.SYSTEM.norm>
0

>  <SCORE.heavy>
23

>  <SCORE.norm>
-0.707497

>  <RMSD>
4.738

$$$$
1uui_lig
 OpenBabel11021811413D
libRbt.so/2013.1/901 2013/11/27
 23 24  0  0  0  0  0  0  0  0999 V2000
  -12.4910    0.0742    2.3192 C   0  0  0  0  0  0  0  0  0  0  0  0
  -12.9115    0.9626   -0.4168 O   0  0  0  0  0  0  0  0  0  0  0  0
   -7.6387   -0.5851    1.1018 O   0  0  0  0  0  0  0  0  0  0  0  0
  -12.9912    1.0962   -1.8415 C   0  0  0  0  0  0  0  0  0  0  0  0
   -7.4078   -1.9426    0.7173 C   0  0  0  0  0  0  0  0  0  0  0  0
  -13.1943    1.3977    2.3753 N   0  0  0  0  0  0  0  0  0  0  0  0
  -13.0254   -0.2964   -2.4729 C   0  0  0  0  0  0  0  0  0  0  0  0
  -12.3452    2.4327    3.0252 C   0  0  0  0  0  0  0  0  0  0  0  0
  -14.4837    1.2834    3.1066 C   0  0  0  0  0  0  0  0  0  0  0  0
  -14.4089   -0.9253   -2.2794 C   0  0  0  0  0  0  0  0  0  0  0  0
  -11.9944    2.0608    4.4759 C   0  0  0  0  0  0  0  0  0  0  0  0
  -14.2755    0.7970    4.5510 C   0  0  0  0  0  0  0  0  0  0  0  0
  -15.4035   -0.1907   -3.0929 N   0  0  0  0  0  0  0  0  0  0  0  0
  -12.8563    0.9543    4.9976 N   0  0  0  0  0  0  0  0  0  0  0  0
  -12.4080    0.2098    6.1046 C   0  0  0  0  0  0  0  0  0  0  0  0
  -12.4428   -1.1531    6.0883 N   0  0  0  0  0  0  0  0  0  0  0  0
  -12.0561    0.8323    7.2657 N   0  0  0  0  0  0  0  0  0  0  0  0
  -11.5901    0.5702   -0.0345 C   0  0  0  0  0  0  0  0  0  0  0  0
  -11.3356    0.1292    1.2929 C   0  0  0  0  0  0  0  0  0  0  0  0
  -10.0190   -0.2559    1.6697 C   0  0  0  0  0  0  0  0  0  0  0  0
   -8.9623   -0.1993    0.7207 C   0  0  0  0  0  0  0  0  0  0  0  0
   -9.2198    0.2403   -0.6044 C   0  0  0  0  0  0  0  0  0  0  0  0
  -10.5332    0.6259   -0.9813 C   0  0  0  0  0  0  0  0  0  0  0  0
  2  4  1  0  0  0  0
  3  5  1  0  0  0  0
  4  7  1  0  0  0  0
  6  1  1  0  0  0  0
  7 10  1  0  0  0  0
  8  6  1  0  0  0  0
  8 11  1  0  0  0  0
  9  6  1  0  0  0  0
 10 13  1  0  0  0  0
 11 14  1  0  0  0  0
 12  9  1  0  0  0  0
 14 12  1  0  0  0  0
 14 15  1  0  0  0  0
 15 16  1  0  0  0  0
 15 17  1  0  0  0  0
 18  2  1  0  0  0  0
 18 23  2  0  0  0  0
 19  1  1  0  0  0  0
 19 18  1  0  0  0  0
 20 19  2  0  0  0  0
 21  3  1  0  0  0  0
 21 20  1  0  0  0  0
 22 21  2  0  0  0  0
 22 23  1  0  0  0  0
M  END
>  <CHROM.1>
74.93129721,75.30739764,-70.93731847,68.54555777,35.71781612,-131.93666398
-50.57810069,-123.08006388,-167.95877875,-52.71754481,96.68542394,-11.96204421
0.34184406,1.67458339,1.58434855,-0.21842726,1.47885510

>  <Name>
1uui_lig

>  <RI>
0

>  <Rbt.Current_Directory>
/home/itssahil/PROJECTS/Mol_Feturizer/New_Systems/rnas/1uui

>  <Rbt.Executable>
rbdock ($Id: //depot/dev/client3/rdock/2013.1/src/exe/rbdock.cxx#4 $)

>  <Rbt.Library>
libRbt.so (2013.1, Build901 2013/11/27)

>  <Rbt.Parameter_File>
/export/apps/rDock/src/rDock_2013.1_src/data/scripts/dock_solv.prm

>  <Rbt.Receptor>
prm/pocket_docking_5.prm

>  <SCORE>
-28.4846

>  <SCORE.INTER>
-23.3056

>  <SCORE.INTER.CONST>
1

>  <SCORE.INTER.POLAR>
-2.31168

>  <SCORE.INTER.ROT>
10

>  <SCORE.INTER.SOLV>
8.85331

>  <SCORE.INTER.VDW>
-21.0492

>  <SCORE.INTER.norm>
-1.01329

>  <SCORE.INTRA>
-5.60327

>  <SCORE.INTRA.DIHEDRAL>
-10.3496

>  <SCORE.INTRA.DIHEDRAL.0>
23.4151

>  <SCORE.INTRA.POLAR>
-0.666689

>  <SCORE.INTRA.POLAR.0>
0

>  <SCORE.INTRA.REPUL>
0

>  <SCORE.INTRA.REPUL.0>
0

>  <SCORE.INTRA.SOLV>
0.428041

>  <SCORE.INTRA.SOLV.lig_0>
-17.3568

>  <SCORE.INTRA.VDW>
1.62424

>  <SCORE.INTRA.VDW.0>
1.0768

>  <SCORE.INTRA.norm>
-0.24362

>  <SCORE.RESTR>
0.424219

>  <SCORE.RESTR.CAVITY>
0.424219

>  <SCORE.RESTR.norm>
0.0184443

>  <SCORE.SYSTEM>
0

>  <SCORE.SYSTEM.CONST>
0

>  <SCORE.SYSTEM.DIHEDRAL>
0

>  <SCORE.SYSTEM.SOLV>
0

>  <SCORE.SYSTEM.norm>
0

>  <SCORE.heavy>
23

>  <SCORE.norm>
-1.23846

>  <RMSD>
4.748

$$$$
1uui_lig
 OpenBabel11021811413D
libRbt.so/2013.1/901 2013/11/27
 23 24  0  0  0  0  0  0  0  0999 V2000
  -11.5366    0.0052    2.1868 C   0  0  0  0  0  0  0  0  0  0  0  0
  -11.5878    0.8970   -0.5797 O   0  0  0  0  0  0  0  0  0  0  0  0
   -6.6182   -0.9203    1.5427 O   0  0  0  0  0  0  0  0  0  0  0  0
  -11.3534    1.7546   -1.7038 C   0  0  0  0  0  0  0  0  0  0  0  0
   -6.3865   -2.2702    1.1324 C   0  0  0  0  0  0  0  0  0  0  0  0
  -12.2975    1.2807    1.9780 N   0  0  0  0  0  0  0  0  0  0  0  0
  -12.6971    2.1663   -2.3072 C   0  0  0  0  0  0  0  0  0  0  0  0
  -11.6935    2.4016    2.7484 C   0  0  0  0  0  0  0  0  0  0  0  0
  -13.7222    1.1198    2.3714 C   0  0  0  0  0  0  0  0  0  0  0  0
  -12.4933    2.6856   -3.7340 C   0  0  0  0  0  0  0  0  0  0  0  0
  -11.7017    2.1290    4.2622 C   0  0  0  0  0  0  0  0  0  0  0  0
  -13.8608    0.7234    3.8512 C   0  0  0  0  0  0  0  0  0  0  0  0
  -12.1872    1.5508   -4.6336 N   0  0  0  0  0  0  0  0  0  0  0  0
  -12.6101    0.9965    4.6255 N   0  0  0  0  0  0  0  0  0  0  0  0
  -12.4185    0.3413    5.8561 C   0  0  0  0  0  0  0  0  0  0  0  0
  -12.0880    1.0447    6.9763 N   0  0  0  0  0  0  0  0  0  0  0  0
  -12.4263   -1.0204    5.9283 N   0  0  0  0  0  0  0  0  0  0  0  0
  -10.3429    0.4370   -0.0462 C   0  0  0  0  0  0  0  0  0  0  0  0
  -10.2685   -0.0083    1.3019 C   0  0  0  0  0  0  0  0  0  0  0  0
   -9.0272   -0.4607    1.8295 C   0  0  0  0  0  0  0  0  0  0  0  0
   -7.8659   -0.4669    1.0099 C   0  0  0  0  0  0  0  0  0  0  0  0
   -7.9437   -0.0228   -0.3362 C   0  0  0  0  0  0  0  0  0  0  0  0
   -9.1817    0.4299   -0.8635 C   0  0  0  0  0  0  0  0  0  0  0  0
  2  4  1  0  0  0  0
  3  5  1  0  0  0  0
  4  7  1  0  0  0  0
  6  1  1  0  0  0  0
  7 10  1  0  0  0  0
  8  6  1  0  0  0  0
  8 11  1  0  0  0  0
  9  6  1  0  0  0  0
 10 13  1  0  0  0  0
 11 14  1  0  0  0  0
 12  9  1  0  0  0  0
 14 12  1  0  0  0  0
 14 15  1  0  0  0  0
 15 16  1  0  0  0  0
 15 17  1  0  0  0  0
 18  2  1  0  0  0  0
 18 23  2  0  0  0  0
 19  1  1  0  0  0  0
 19 18  1  0  0  0  0
 20 19  2  0  0  0  0
 21  3  1  0  0  0  0
 21 20  1  0  0  0  0
 22 21  2  0  0  0  0
 22 23  1  0  0  0  0
M  END
>  <CHROM.1>
176.67043473,-161.72238283,-79.82267818,72.77550171,-41.25796440,39.08485167
83.08010745,105.37428915,157.42456226,-43.01801005,99.53618371,-11.00648226
0.64492966,1.45430583,1.76558004,-0.43721346,1.74041334

>  <Name>
1uui_lig

>  <RI>
0

>  <Rbt.Current_Directory>
/home/itssahil/PROJECTS/Mol_Feturizer/New_Systems/rnas/1uui

>  <Rbt.Executable>
rbdock ($Id: //depot/dev/client3/rdock/2013.1/src/exe/rbdock.cxx#4 $)

>  <Rbt.Library>
libRbt.so (2013.1, Build901 2013/11/27)

>  <Rbt.Parameter_File>
/export/apps/rDock/src/rDock_2013.1_src/data/scripts/dock_solv.prm

>  <Rbt.Receptor>
prm/pocket_docking_4.prm

>  <SCORE>
-29.9469

>  <SCORE.INTER>
-22.788

>  <SCORE.INTER.CONST>
1

>  <SCORE.INTER.POLAR>
-2.6913

>  <SCORE.INTER.ROT>
10

>  <SCORE.INTER.SOLV>
9.29603

>  <SCORE.INTER.VDW>
-19.5864

>  <SCORE.INTER.norm>
-0.990782

>  <SCORE.INTRA>
-7.19247

>  <SCORE.INTRA.DIHEDRAL>
-10.2122

>  <SCORE.INTRA.DIHEDRAL.0>
23.4151

>  <SCORE.INTRA.POLAR>
-0.801215

>  <SCORE.INTRA.POLAR.0>
0

>  <SCORE.INTRA.REPUL>
0

>  <SCORE.INTRA.REPUL.0>
0

>  <SCORE.INTRA.SOLV>
0.395445

>  <SCORE.INTRA.SOLV.lig_0>
-17.3568

>  <SCORE.INTRA.VDW>
0.440045

>  <SCORE.INTRA.VDW.0>
1.0768

>  <SCORE.INTRA.norm>
-0.312716

>  <SCORE.RESTR>
0.0335857

>  <SCORE.RESTR.CAVITY>
0.0335857

>  <SCORE.RESTR.norm>
0.00146025

>  <SCORE.SYSTEM>
0

>  <SCORE.SYSTEM.CONST>
0

>  <SCORE.SYSTEM.DIHEDRAL>
0

>  <SCORE.SYSTEM.SOLV>
0

>  <SCORE.SYSTEM.norm>
0

>  <SCORE.heavy>
23

>  <SCORE.norm>
-1.30204

>  <RMSD>
4.750

$$$$
1uui_lig
 OpenBabel11021811413D
libRbt.so/2013.1/901 2013/11/27
 23 24  0  0  0  0  0  0  0  0999 V2000
  -11.1650    1.4423    1.5782 C   0  0  0  0  0  0  0  0  0  0  0  0
  -10.8107    1.0326   -1.2780 O   0  0  0  0  0  0  0  0  0  0  0  0
   -7.3855   -1.8287    2.2695 O   0  0  0  0  0  0  0  0  0  0  0  0
  -10.0335    1.9092   -2.1036 C   0  0  0  0  0  0  0  0  0  0  0  0
   -6.0936   -1.2164    2.2791 C   0  0  0  0  0  0  0  0  0  0  0  0
  -12.5169    1.0698    1.0461 N   0  0  0  0  0  0  0  0  0  0  0  0
  -10.9708    2.8817   -2.8211 C   0  0  0  0  0  0  0  0  0  0  0  0
  -13.5630    2.0158    1.5209 C   0  0  0  0  0  0  0  0  0  0  0  0
  -12.8821   -0.3148    1.4460 C   0  0  0  0  0  0  0  0  0  0  0  0
  -11.9389    2.1078   -3.7216 C   0  0  0  0  0  0  0  0  0  0  0  0
  -13.6813    2.0198    3.0545 C   0  0  0  0  0  0  0  0  0  0  0  0
  -12.9160   -0.4731    2.9757 C   0  0  0  0  0  0  0  0  0  0  0  0
  -13.1755    2.8985   -3.9120 N   0  0  0  0  0  0  0  0  0  0  0  0
  -12.9895    0.8471    3.6757 N   0  0  0  0  0  0  0  0  0  0  0  0
  -12.6266    0.9150    5.0337 C   0  0  0  0  0  0  0  0  0  0  0  0
  -13.1080    0.0075    5.9301 N   0  0  0  0  0  0  0  0  0  0  0  0
  -11.8963    1.9647    5.5074 N   0  0  0  0  0  0  0  0  0  0  0  0
   -9.9550    0.3129   -0.3859 C   0  0  0  0  0  0  0  0  0  0  0  0
  -10.0903    0.4812    1.0193 C   0  0  0  0  0  0  0  0  0  0  0  0
   -9.2340   -0.2333    1.9025 C   0  0  0  0  0  0  0  0  0  0  0  0
   -8.2469   -1.1124    1.3800 C   0  0  0  0  0  0  0  0  0  0  0  0
   -8.1151   -1.2794   -0.0236 C   0  0  0  0  0  0  0  0  0  0  0  0
   -8.9683   -0.5659   -0.9060 C   0  0  0  0  0  0  0  0  0  0  0  0
  2  4  1  0  0  0  0
  3  5  1  0  0  0  0
  4  7  1  0  0  0  0
  6  1  1  0  0  0  0
  7 10  1  0  0  0  0
  8  6  1  0  0  0  0
  8 11  1  0  0  0  0
  9  6  1  0  0  0  0
 10 13  1  0  0  0  0
 11 14  1  0  0  0  0
 12  9  1  0  0  0  0
 14 12  1  0  0  0  0
 14 15  1  0  0  0  0
 15 16  1  0  0  0  0
 15 17  1  0  0  0  0
 18  2  1  0  0  0  0
 18 23  2  0  0  0  0
 19  1  1  0  0  0  0
 19 18  1  0  0  0  0
 20 19  2  0  0  0  0
 21  3  1  0  0  0  0
 21 20  1  0  0  0  0
 22 21  2  0  0  0  0
 22 23  1  0  0  0  0
M  END
>  <CHROM.1>
-167.60238564,-61.42558815,-177.50735055,154.26373297,-176.48366323,120.73317335
161.33939622,-7.83091333,117.62458447,55.18843592,-103.70849686,-11.02407516
0.68258507,1.11603299,1.72331115,-0.46604822,1.81703362

>  <Name>
1uui_lig

>  <RI>
0

>  <Rbt.Current_Directory>
/home/itssahil/PROJECTS/Mol_Feturizer/New_Systems/rnas/1uui

>  <Rbt.Executable>
rbdock ($Id: //depot/dev/client3/rdock/2013.1/src/exe/rbdock.cxx#4 $)

>  <Rbt.Library>
libRbt.so (2013.1, Build901 2013/11/27)

>  <Rbt.Parameter_File>
/export/apps/rDock/src/rDock_2013.1_src/data/scripts/dock_solv.prm

>  <Rbt.Receptor>
prm/pocket_docking_3.prm

>  <SCORE>
-24.3589

>  <SCORE.INTER>
-15.952

>  <SCORE.INTER.CONST>
1

>  <SCORE.INTER.POLAR>
-1.83395

>  <SCORE.INTER.ROT>
10

>  <SCORE.INTER.SOLV>
7.64234

>  <SCORE.INTER.VDW>
-17.3356

>  <SCORE.INTER.norm>
-0.693565

>  <SCORE.INTRA>
-8.4515

>  <SCORE.INTRA.DIHEDRAL>
-7.91495

>  <SCORE.INTRA.DIHEDRAL.0>
23.4151

>  <SCORE.INTRA.POLAR>
-0.583945

>  <SCORE.INTRA.POLAR.0>
0

>  <SCORE.INTRA.REPUL>
0

>  <SCORE.INTRA.REPUL.0>
0

>  <SCORE.INTRA.SOLV>
0.382083

>  <SCORE.INTRA.SOLV.lig_0>
-17.3568

>  <SCORE.INTRA.VDW>
-2.69966

>  <SCORE.INTRA.VDW.0>
1.0768

>  <SCORE.INTRA.norm>
-0.367457

>  <SCORE.RESTR>
0.0445839

>  <SCORE.RESTR.CAVITY>
0.0445839

>  <SCORE.RESTR.norm>
0.00193843

>  <SCORE.SYSTEM>
0

>  <SCORE.SYSTEM.CONST>
0

>  <SCORE.SYSTEM.DIHEDRAL>
0

>  <SCORE.SYSTEM.SOLV>
0

>  <SCORE.SYSTEM.norm>
0

>  <SCORE.heavy>
23

>  <SCORE.norm>
-1.05908

>  <RMSD>
4.768

$$$$
1uui_lig
 OpenBabel11021811413D
libRbt.so/2013.1/901 2013/11/27
 23 24  0  0  0  0  0  0  0  0999 V2000
  -11.4174    0.1515    2.1176 C   0  0  0  0  0  0  0  0  0  0  0  0
  -11.1564    1.5412   -0.4225 O   0  0  0  0  0  0  0  0  0  0  0  0
   -6.5861   -1.2070    1.5935 O   0  0  0  0  0  0  0  0  0  0  0  0
  -10.7541    2.7771   -1.0264 C   0  0  0  0  0  0  0  0  0  0  0  0
   -5.9579   -0.4094    2.6001 C   0  0  0  0  0  0  0  0  0  0  0  0
  -12.1154    1.4698    1.9612 N   0  0  0  0  0  0  0  0  0  0  0  0
  -11.9355    3.3622   -1.8019 C   0  0  0  0  0  0  0  0  0  0  0  0
  -11.4957    2.5138    2.8219 C   0  0  0  0  0  0  0  0  0  0  0  0
  -13.5600    1.3484    2.2913 C   0  0  0  0  0  0  0  0  0  0  0  0
  -12.3193    2.4286   -2.9543 C   0  0  0  0  0  0  0  0  0  0  0  0
  -11.5748    2.1502    4.3143 C   0  0  0  0  0  0  0  0  0  0  0  0
  -13.7731    0.8691    3.7374 C   0  0  0  0  0  0  0  0  0  0  0  0
  -13.4685    3.0003   -3.6912 N   0  0  0  0  0  0  0  0  0  0  0  0
  -12.5435    1.0390    4.5725 N   0  0  0  0  0  0  0  0  0  0  0  0
  -12.4280    0.3023    5.7660 C   0  0  0  0  0  0  0  0  0  0  0  0
  -12.4230   -1.0610    5.7459 N   0  0  0  0  0  0  0  0  0  0  0  0
  -12.4541    0.9295    6.9765 N   0  0  0  0  0  0  0  0  0  0  0  0
  -10.0121    0.8477    0.0835 C   0  0  0  0  0  0  0  0  0  0  0  0
  -10.0915    0.1543    1.3220 C   0  0  0  0  0  0  0  0  0  0  0  0
   -8.9495   -0.5301    1.8234 C   0  0  0  0  0  0  0  0  0  0  0  0
   -7.7338   -0.5198    1.0870 C   0  0  0  0  0  0  0  0  0  0  0  0
   -7.6581    0.1725   -0.1501 C   0  0  0  0  0  0  0  0  0  0  0  0
   -8.7968    0.8568   -0.6509 C   0  0  0  0  0  0  0  0  0  0  0  0
  2  4  1  0  0  0  0
  3  5  1  0  0  0  0
  4  7  1  0  0  0  0
  6  1  1  0  0  0  0
  7 10  1  0  0  0  0
  8  6  1  0  0  0  0
  8 11  1  0  0  0  0
  9  6  1  0  0  0  0
 10 13  1  0  0  0  0
 11 14  1  0  0  0  0
 12  9  1  0  0  0  0
 14 12  1  0  0  0  0
 14 15  1  0  0  0  0
 15 16  1  0  0  0  0
 15 17  1  0  0  0  0
 18  2  1  0  0  0  0
 18 23  2  0  0  0  0
 19  1  1  0  0  0  0
 19 18  1  0  0  0  0
 20 19  2  0  0  0  0
 21  3  1  0  0  0  0
 21 20  1  0  0  0  0
 22 21  2  0  0  0  0
 22 23  1  0  0  0  0
M  END
>  <CHROM.1>
168.69789873,-63.91366505,-77.76574700,179.61559072,70.20486454,-130.70091386
-61.63905240,73.24791141,140.97618632,-35.37341712,-79.30540900,-10.89216851
0.98333193,1.66915503,1.69898925,-0.38054594,1.84999061

>  <Name>
1uui_lig

>  <RI>
0

>  <Rbt.Current_Directory>
/home/itssahil/PROJECTS/Mol_Feturizer/New_Systems/rnas/1uui

>  <Rbt.Executable>
rbdock ($Id: //depot/dev/client3/rdock/2013.1/src/exe/rbdock.cxx#4 $)

>  <Rbt.Library>
libRbt.so (2013.1, Build901 2013/11/27)

>  <Rbt.Parameter_File>
/export/apps/rDock/src/rDock_2013.1_src/data/scripts/dock_solv.prm

>  <Rbt.Receptor>
prm/pocket_docking_3.prm

>  <SCORE>
-26.0255

>  <SCORE.INTER>
-17.1543

>  <SCORE.INTER.CONST>
1

>  <SCORE.INTER.POLAR>
-2.62308

>  <SCORE.INTER.ROT>
10

>  <SCORE.INTER.SOLV>
7.48522

>  <SCORE.INTER.VDW>
-15.4543

>  <SCORE.INTER.norm>
-0.74584

>  <SCORE.INTRA>
-9.04229

>  <SCORE.INTRA.DIHEDRAL>
-10.8185

>  <SCORE.INTRA.DIHEDRAL.0>
23.4151

>  <SCORE.INTRA.POLAR>
-0.865624

>  <SCORE.INTRA.POLAR.0>
0

>  <SCORE.INTRA.REPUL>
0

>  <SCORE.INTRA.REPUL.0>
0

>  <SCORE.INTRA.SOLV>
0.348973

>  <SCORE.INTRA.SOLV.lig_0>
-17.3568

>  <SCORE.INTRA.VDW>
-0.864424

>  <SCORE.INTRA.VDW.0>
1.0768

>  <SCORE.INTRA.norm>
-0.393143

>  <SCORE.RESTR>
0.171088

>  <SCORE.RESTR.CAVITY>
0.171088

>  <SCORE.RESTR.norm>
0.00743863

>  <SCORE.SYSTEM>
0

>  <SCORE.SYSTEM.CONST>
0

>  <SCORE.SYSTEM.DIHEDRAL>
0

>  <SCORE.SYSTEM.SOLV>
0

>  <SCORE.SYSTEM.norm>
0

>  <SCORE.heavy>
23

>  <SCORE.norm>
-1.13154

>  <RMSD>
4.775

$$$$
1uui_lig
 OpenBabel11021811413D
libRbt.so/2013.1/901 2013/11/27
 23 24  0  0  0  0  0  0  0  0999 V2000
  -11.0508    0.4873    1.9216 C   0  0  0  0  0  0  0  0  0  0  0  0
  -11.1898    1.3941   -0.8370 O   0  0  0  0  0  0  0  0  0  0  0  0
   -6.3487   -1.0481    0.9245 O   0  0  0  0  0  0  0  0  0  0  0  0
  -11.4249    1.0801   -2.2155 C   0  0  0  0  0  0  0  0  0  0  0  0
   -6.5415   -2.4591    1.0511 C   0  0  0  0  0  0  0  0  0  0  0  0
  -12.1022   -0.5434    1.6359 N   0  0  0  0  0  0  0  0  0  0  0  0
  -12.7930    1.6267   -2.6263 C   0  0  0  0  0  0  0  0  0  0  0  0
  -13.3675    0.0900    1.1749 C   0  0  0  0  0  0  0  0  0  0  0  0
  -12.3730   -1.3736    2.8392 C   0  0  0  0  0  0  0  0  0  0  0  0
  -12.9259    3.0886   -2.1880 C   0  0  0  0  0  0  0  0  0  0  0  0
  -13.9570    1.0353    2.2354 C   0  0  0  0  0  0  0  0  0  0  0  0
  -12.8589   -0.5176    4.0212 C   0  0  0  0  0  0  0  0  0  0  0  0
  -12.0557    3.9382   -3.0315 N   0  0  0  0  0  0  0  0  0  0  0  0
  -13.3337    0.8310    3.5806 N   0  0  0  0  0  0  0  0  0  0  0  0
  -13.4256    1.8619    4.5342 C   0  0  0  0  0  0  0  0  0  0  0  0
  -12.5047    1.9710    5.5337 N   0  0  0  0  0  0  0  0  0  0  0  0
  -14.5078    2.6911    4.5609 N   0  0  0  0  0  0  0  0  0  0  0  0
   -9.9775    0.7775   -0.3939 C   0  0  0  0  0  0  0  0  0  0  0  0
   -9.8623    0.3188    0.9469 C   0  0  0  0  0  0  0  0  0  0  0  0
   -8.6530   -0.2896    1.3843 C   0  0  0  0  0  0  0  0  0  0  0  0
   -7.5644   -0.4377    0.4824 C   0  0  0  0  0  0  0  0  0  0  0  0
   -7.6830    0.0202   -0.8561 C   0  0  0  0  0  0  0  0  0  0  0  0
   -8.8890    0.6286   -1.2935 C   0  0  0  0  0  0  0  0  0  0  0  0
  2  4  1  0  0  0  0
  3  5  1  0  0  0  0
  4  7  1  0  0  0  0
  6  1  1  0  0  0  0
  7 10  1  0  0  0  0
  8  6  1  0  0  0  0
  8 11  1  0  0  0  0
  9  6  1  0  0  0  0
 10 13  1  0  0  0  0
 11 14  1  0  0  0  0
 12  9  1  0  0  0  0
 14 12  1  0  0  0  0
 14 15  1  0  0  0  0
 15 16  1  0  0  0  0
 15 17  1  0  0  0  0
 18  2  1  0  0  0  0
 18 23  2  0  0  0  0
 19  1  1  0  0  0  0
 19 18  1  0  0  0  0
 20 19  2  0  0  0  0
 21  3  1  0  0  0  0
 21 20  1  0  0  0  0
 22 21  2  0  0  0  0
 22 23  1  0  0  0  0
M  END
>  <CHROM.1>
174.21457146,49.08563751,-115.73466384,71.45580682,-50.02600998,-155.07396786
98.93460424,-82.12481752,-146.48313835,76.83437423,74.13223111,-11.15445350
0.70266849,1.03034988,-2.56860189,0.48353188,-1.24336088

>  <Name>
1uui_lig

>  <RI>
0

>  <Rbt.Current_Directory>
/home/itssahil/PROJECTS/Mol_Feturizer/New_Systems/rnas/1uui

>  <Rbt.Executable>
rbdock ($Id: //depot/dev/client3/rdock/2013.1/src/exe/rbdock.cxx#4 $)

>  <Rbt.Library>
libRbt.so (2013.1, Build901 2013/11/27)

>  <Rbt.Parameter_File>
/export/apps/rDock/src/rDock_2013.1_src/data/scripts/dock_solv.prm

>  <Rbt.Receptor>
prm/pocket_docking_2.prm

>  <SCORE>
-12.7306

>  <SCORE.INTER>
-9.00817

>  <SCORE.INTER.CONST>
1

>  <SCORE.INTER.POLAR>
-1.30674

>  <SCORE.INTER.ROT>
10

>  <SCORE.INTER.SOLV>
4.01984

>  <SCORE.INTER.VDW>
-13.2563

>  <SCORE.INTER.norm>
-0.39166

>  <SCORE.INTRA>
-3.86677

>  <SCORE.INTRA.DIHEDRAL>
-8.1783

>  <SCORE.INTRA.DIHEDRAL.0>
23.4151

>  <SCORE.INTRA.POLAR>
0

>  <SCORE.INTRA.POLAR.0>
0

>  <SCORE.INTRA.REPUL>
0

>  <SCORE.INTRA.REPUL.0>
0

>  <SCORE.INTRA.SOLV>
0.410477

>  <SCORE.INTRA.SOLV.lig_0>
-17.3568

>  <SCORE.INTRA.VDW>
0.017137

>  <SCORE.INTRA.VDW.0>
1.0768

>  <SCORE.INTRA.norm>
-0.168121

>  <SCORE.RESTR>
0.144343

>  <SCORE.RESTR.CAVITY>
0.144343

>  <SCORE.RESTR.norm>
0.0062758

>  <SCORE.SYSTEM>
0

>  <SCORE.SYSTEM.CONST>
0

>  <SCORE.SYSTEM.DIHEDRAL>
0

>  <SCORE.SYSTEM.SOLV>
0

>  <SCORE.SYSTEM.norm>
0

>  <SCORE.heavy>
23

>  <SCORE.norm>
-0.553504

>  <RMSD>
4.800

$$$$
1uui_lig
 OpenBabel11021811413D
libRbt.so/2013.1/901 2013/11/27
 23 24  0  0  0  0  0  0  0  0999 V2000
  -13.2565   -0.3790    3.8767 C   0  0  0  0  0  0  0  0  0  0  0  0
  -12.6981    2.3282    4.7772 O   0  0  0  0  0  0  0  0  0  0  0  0
   -9.7646    0.3484    0.3075 O   0  0  0  0  0  0  0  0  0  0  0  0
  -11.8887    2.2637    5.9582 C   0  0  0  0  0  0  0  0  0  0  0  0
  -10.6280    0.2507   -0.8279 C   0  0  0  0  0  0  0  0  0  0  0  0
  -14.2061   -0.9468    2.8642 N   0  0  0  0  0  0  0  0  0  0  0  0
  -11.3318    3.6561    6.2590 C   0  0  0  0  0  0  0  0  0  0  0  0
  -14.8246    0.1286    2.0421 C   0  0  0  0  0  0  0  0  0  0  0  0
  -15.2744   -1.7420    3.5252 C   0  0  0  0  0  0  0  0  0  0  0  0
  -10.7065    3.6791    7.6574 C   0  0  0  0  0  0  0  0  0  0  0  0
  -15.6363    1.1137    2.9003 C   0  0  0  0  0  0  0  0  0  0  0  0
  -16.0896   -0.8879    4.5111 C   0  0  0  0  0  0  0  0  0  0  0  0
  -10.2745    5.0568    7.9827 N   0  0  0  0  0  0  0  0  0  0  0  0
  -15.9045    0.5773    4.2714 N   0  0  0  0  0  0  0  0  0  0  0  0
  -16.2360    1.4791    5.2996 C   0  0  0  0  0  0  0  0  0  0  0  0
  -15.3081    1.8507    6.2269 N   0  0  0  0  0  0  0  0  0  0  0  0
  -17.5229    1.8961    5.4717 N   0  0  0  0  0  0  0  0  0  0  0  0
  -11.9661    1.8307    3.6535 C   0  0  0  0  0  0  0  0  0  0  0  0
  -12.2041    0.5124    3.1774 C   0  0  0  0  0  0  0  0  0  0  0  0
  -11.4704    0.0203    2.0623 C   0  0  0  0  0  0  0  0  0  0  0  0
  -10.5027    0.8455    1.4274 C   0  0  0  0  0  0  0  0  0  0  0  0
  -10.2682    2.1618    1.9044 C   0  0  0  0  0  0  0  0  0  0  0  0
  -10.9990    2.6536    3.0179 C   0  0  0  0  0  0  0  0  0  0  0  0
  2  4  1  0  0  0  0
  3  5  1  0  0  0  0
  4  7  1  0  0  0  0
  6  1  1  0  0  0  0
  7 10  1  0  0  0  0
  8  6  1  0  0  0  0
  8 11  1  0  0  0  0
  9  6  1  0  0  0  0
 10 13  1  0  0  0  0
 11 14  1  0  0  0  0
 12  9  1  0  0  0  0
 14 12  1  0  0  0  0
 14 15  1  0  0  0  0
 15 16  1  0  0  0  0
 15 17  1  0  0  0  0
 18  2  1  0  0  0  0
 18 23  2  0  0  0  0
 19  1  1  0  0  0  0
 19 18  1  0  0  0  0
 20 19  2  0  0  0  0
 21  3  1  0  0  0  0
 21 20  1  0  0  0  0
 22 21  2  0  0  0  0
 22 23  1  0  0  0  0
M  END
>  <CHROM.1>
101.22535962,168.48244721,-54.50508736,-175.24677286,70.03491245,-102.03784596
62.83258683,-44.13972806,101.16728473,128.95542567,71.23100854,-13.02417867
1.28404765,3.90171286,0.99725684,-0.35487952,-2.13983285

>  <Name>
1uui_lig

>  <RI>
0

>  <Rbt.Current_Directory>
/home/itssahil/PROJECTS/Mol_Feturizer/New_Systems/rnas/1uui

>  <Rbt.Executable>
rbdock ($Id: //depot/dev/client3/rdock/2013.1/src/exe/rbdock.cxx#4 $)

>  <Rbt.Library>
libRbt.so (2013.1, Build901 2013/11/27)

>  <Rbt.Parameter_File>
/export/apps/rDock/src/rDock_2013.1_src/data/scripts/dock_solv.prm

>  <Rbt.Receptor>
prm/pocket_docking_5.prm

>  <SCORE>
-18.3457

>  <SCORE.INTER>
-11.8229

>  <SCORE.INTER.CONST>
1

>  <SCORE.INTER.POLAR>
-1.89176

>  <SCORE.INTER.ROT>
10

>  <SCORE.INTER.SOLV>
3.69455

>  <SCORE.INTER.VDW>
-13.0743

>  <SCORE.INTER.norm>
-0.51404

>  <SCORE.INTRA>
-6.52281

>  <SCORE.INTRA.DIHEDRAL>
-3.81234

>  <SCORE.INTRA.DIHEDRAL.0>
23.4151

>  <SCORE.INTRA.POLAR>
-0.951665

>  <SCORE.INTRA.POLAR.0>
0

>  <SCORE.INTRA.REPUL>
0.334346

>  <SCORE.INTRA.REPUL.0>
0

>  <SCORE.INTRA.SOLV>
0.843907

>  <SCORE.INTRA.SOLV.lig_0>
-17.3568

>  <SCORE.INTRA.VDW>
-3.47466

>  <SCORE.INTRA.VDW.0>
1.0768

>  <SCORE.INTRA.norm>
-0.283601

>  <SCORE.RESTR>
0

>  <SCORE.RESTR.CAVITY>
0

>  <SCORE.RESTR.norm>
0

>  <SCORE.SYSTEM>
0

>  <SCORE.SYSTEM.CONST>
0

>  <SCORE.SYSTEM.DIHEDRAL>
0

>  <SCORE.SYSTEM.SOLV>
0

>  <SCORE.SYSTEM.norm>
0

>  <SCORE.heavy>
23

>  <SCORE.norm>
-0.797641

>  <RMSD>
4.802

$$$$
1uui_lig
 OpenBabel11021811413D
libRbt.so/2013.1/901 2013/11/27
 23 24  0  0  0  0  0  0  0  0999 V2000
  -12.5672   -0.4801    3.1634 C   0  0  0  0  0  0  0  0  0  0  0  0
  -14.1100   -0.3208    0.7046 O   0  0  0  0  0  0  0  0  0  0  0  0
   -8.4604    0.3601    0.3543 O   0  0  0  0  0  0  0  0  0  0  0  0
  -14.6169   -0.8558   -0.5245 C   0  0  0  0  0  0  0  0  0  0  0  0
   -7.8239   -0.9198    0.3253 C   0  0  0  0  0  0  0  0  0  0  0  0
  -13.9051    0.1957    3.2164 N   0  0  0  0  0  0  0  0  0  0  0  0
  -15.0098    0.2985   -1.4477 C   0  0  0  0  0  0  0  0  0  0  0  0
  -13.7611    1.6615    3.4292 C   0  0  0  0  0  0  0  0  0  0  0  0
  -14.7493   -0.3814    4.2957 C   0  0  0  0  0  0  0  0  0  0  0  0
  -15.5593   -0.2507   -2.7681 C   0  0  0  0  0  0  0  0  0  0  0  0
  -13.0546    1.9832    4.7571 C   0  0  0  0  0  0  0  0  0  0  0  0
  -14.0876   -0.2293    5.6760 C   0  0  0  0  0  0  0  0  0  0  0  0
  -14.4342   -0.5983   -3.6648 N   0  0  0  0  0  0  0  0  0  0  0  0
  -12.9983    0.7963    5.6669 N   0  0  0  0  0  0  0  0  0  0  0  0
  -12.0414    0.7773    6.6986 C   0  0  0  0  0  0  0  0  0  0  0  0
  -11.5949    1.9383    7.2568 N   0  0  0  0  0  0  0  0  0  0  0  0
  -11.4412   -0.3895    7.0699 N   0  0  0  0  0  0  0  0  0  0  0  0
  -12.6919   -0.1541    0.6187 C   0  0  0  0  0  0  0  0  0  0  0  0
  -11.8956   -0.2231    1.7944 C   0  0  0  0  0  0  0  0  0  0  0  0
  -10.4861   -0.0522    1.7046 C   0  0  0  0  0  0  0  0  0  0  0  0
   -9.8776    0.1866    0.4425 C   0  0  0  0  0  0  0  0  0  0  0  0
  -10.6753    0.2537   -0.7299 C   0  0  0  0  0  0  0  0  0  0  0  0
  -12.0821    0.0844   -0.6413 C   0  0  0  0  0  0  0  0  0  0  0  0
  2  4  1  0  0  0  0
  3  5  1  0  0  0  0
  4  7  1  0  0  0  0
  6  1  1  0  0  0  0
  7 10  1  0  0  0  0
  8  6  1  0  0  0  0
  8 11  1  0  0  0  0
  9  6  1  0  0  0  0
 10 13  1  0  0  0  0
 11 14  1  0  0  0  0
 12  9  1  0  0  0  0
 14 12  1  0  0  0  0
 14 15  1  0  0  0  0
 15 16  1  0  0  0  0
 15 17  1  0  0  0  0
 18  2  1  0  0  0  0
 18 23  2  0  0  0  0
 19  1  1  0  0  0  0
 19 18  1  0  0  0  0
 20 19  2  0  0  0  0
 21  3  1  0  0  0  0
 21 20  1  0  0  0  0
 22 21  2  0  0  0  0
 22 23  1  0  0  0  0
M  END
>  <CHROM.1>
-91.19177965,-179.82430942,-76.53810377,-82.15786854,54.23729880,28.68767795
-139.30380131,-157.33297000,-151.93392473,-35.52744475,82.36942956,-12.52918369
0.15718452,2.07163583,1.46766578,-0.01106633,1.44176444

>  <Name>
1uui_lig

>  <RI>
0

>  <Rbt.Current_Directory>
/home/itssahil/PROJECTS/Mol_Feturizer/New_Systems/rnas/1uui

>  <Rbt.Executable>
rbdock ($Id: //depot/dev/client3/rdock/2013.1/src/exe/rbdock.cxx#4 $)

>  <Rbt.Library>
libRbt.so (2013.1, Build901 2013/11/27)

>  <Rbt.Parameter_File>
/export/apps/rDock/src/rDock_2013.1_src/data/scripts/dock_solv.prm

>  <Rbt.Receptor>
prm/pocket_docking_6.prm

>  <SCORE>
-31.08

>  <SCORE.INTER>
-25.2964

>  <SCORE.INTER.CONST>
1

>  <SCORE.INTER.POLAR>
-2.16697

>  <SCORE.INTER.ROT>
10

>  <SCORE.INTER.SOLV>
9.30572

>  <SCORE.INTER.VDW>
-23.0096

>  <SCORE.INTER.norm>
-1.09984

>  <SCORE.INTRA>
-5.78366

>  <SCORE.INTRA.DIHEDRAL>
-7.14501

>  <SCORE.INTRA.DIHEDRAL.0>
23.4151

>  <SCORE.INTRA.POLAR>
-0.852469

>  <SCORE.INTRA.POLAR.0>
0

>  <SCORE.INTRA.REPUL>
0

>  <SCORE.INTRA.REPUL.0>
0

>  <SCORE.INTRA.SOLV>
0.485728

>  <SCORE.INTRA.SOLV.lig_0>
-17.3568

>  <SCORE.INTRA.VDW>
0.444378

>  <SCORE.INTRA.VDW.0>
1.0768

>  <SCORE.INTRA.norm>
-0.251464

>  <SCORE.RESTR>
0

>  <SCORE.RESTR.CAVITY>
0

>  <SCORE.RESTR.norm>
0

>  <SCORE.SYSTEM>
0

>  <SCORE.SYSTEM.CONST>
0

>  <SCORE.SYSTEM.DIHEDRAL>
0

>  <SCORE.SYSTEM.SOLV>
0

>  <SCORE.SYSTEM.norm>
0

>  <SCORE.heavy>
23

>  <SCORE.norm>
-1.35131

>  <RMSD>
4.824

$$$$
1uui_lig
 OpenBabel11021811413D
libRbt.so/2013.1/901 2013/11/27
 23 24  0  0  0  0  0  0  0  0999 V2000
  -13.4076    1.4880    3.5102 C   0  0  0  0  0  0  0  0  0  0  0  0
  -14.5591   -0.2212    1.4598 O   0  0  0  0  0  0  0  0  0  0  0  0
   -9.1771    1.5245    0.7601 O   0  0  0  0  0  0  0  0  0  0  0  0
  -14.6315   -1.6487    1.3547 C   0  0  0  0  0  0  0  0  0  0  0  0
   -8.3022    0.7077    1.5421 C   0  0  0  0  0  0  0  0  0  0  0  0
  -14.4107    0.4327    3.8703 N   0  0  0  0  0  0  0  0  0  0  0  0
  -16.0598   -2.1007    1.6626 C   0  0  0  0  0  0  0  0  0  0  0  0
  -15.3888    0.9376    4.8719 C   0  0  0  0  0  0  0  0  0  0  0  0
  -13.7370   -0.7808    4.4032 C   0  0  0  0  0  0  0  0  0  0  0  0
  -16.0617   -3.5691    2.0995 C   0  0  0  0  0  0  0  0  0  0  0  0
  -14.7040    1.3573    6.1836 C   0  0  0  0  0  0  0  0  0  0  0  0
  -12.9109   -0.4645    5.6617 C   0  0  0  0  0  0  0  0  0  0  0  0
  -15.5659   -4.4149    0.9908 N   0  0  0  0  0  0  0  0  0  0  0  0
  -13.3020    0.8421    6.2767 N   0  0  0  0  0  0  0  0  0  0  0  0
  -12.4070    1.4679    7.1644 C   0  0  0  0  0  0  0  0  0  0  0  0
  -12.4429    2.8175    7.3543 N   0  0  0  0  0  0  0  0  0  0  0  0
  -11.3992    0.7605    7.7504 N   0  0  0  0  0  0  0  0  0  0  0  0
  -13.2076    0.2149    1.2883 C   0  0  0  0  0  0  0  0  0  0  0  0
  -12.6018    1.0525    2.2643 C   0  0  0  0  0  0  0  0  0  0  0  0
  -11.2589    1.4874    2.0872 C   0  0  0  0  0  0  0  0  0  0  0  0
  -10.5266    1.0848    0.9374 C   0  0  0  0  0  0  0  0  0  0  0  0
  -11.1339    0.2473   -0.0348 C   0  0  0  0  0  0  0  0  0  0  0  0
  -12.4744   -0.1864    0.1404 C   0  0  0  0  0  0  0  0  0  0  0  0
  2  4  1  0  0  0  0
  3  5  1  0  0  0  0
  4  7  1  0  0  0  0
  6  1  1  0  0  0  0
  7 10  1  0  0  0  0
  8  6  1  0  0  0  0
  8 11  1  0  0  0  0
  9  6  1  0  0  0  0
 10 13  1  0  0  0  0
 11 14  1  0  0  0  0
 12  9  1  0  0  0  0
 14 12  1  0  0  0  0
 14 15  1  0  0  0  0
 15 16  1  0  0  0  0
 15 17  1  0  0  0  0
 18  2  1  0  0  0  0
 18 23  2  0  0  0  0
 19  1  1  0  0  0  0
 19 18  1  0  0  0  0
 20 19  2  0  0  0  0
 21  3  1  0  0  0  0
 21 20  1  0  0  0  0
 22 21  2  0  0  0  0
 22 23  1  0  0  0  0
M  END
>  <CHROM.1>
175.07536271,-157.76156093,-167.87260727,-62.51928709,74.14950315,-36.76695150
-28.92925225,157.38144298,-126.80227949,30.01660102,80.69381400,-13.04483610
0.09832356,3.24331995,-1.27263757,-0.55310715,-1.95159686

>  <Name>
1uui_lig

>  <RI>
0

>  <Rbt.Current_Directory>
/home/itssahil/PROJECTS/Mol_Feturizer/New_Systems/rnas/1uui

>  <Rbt.Executable>
rbdock ($Id: //depot/dev/client3/rdock/2013.1/src/exe/rbdock.cxx#4 $)

>  <Rbt.Library>
libRbt.so (2013.1, Build901 2013/11/27)

>  <Rbt.Parameter_File>
/export/apps/rDock/src/rDock_2013.1_src/data/scripts/dock_solv.prm

>  <Rbt.Receptor>
prm/pocket_docking_5.prm

>  <SCORE>
-23.3594

>  <SCORE.INTER>
-16.395

>  <SCORE.INTER.CONST>
1

>  <SCORE.INTER.POLAR>
-0.8

>  <SCORE.INTER.ROT>
10

>  <SCORE.INTER.SOLV>
7.82104

>  <SCORE.INTER.VDW>
-21.137

>  <SCORE.INTER.norm>
-0.712826

>  <SCORE.INTRA>
-6.96526

>  <SCORE.INTRA.DIHEDRAL>
-8.63775

>  <SCORE.INTRA.DIHEDRAL.0>
23.4151

>  <SCORE.INTRA.POLAR>
-0.70709

>  <SCORE.INTRA.POLAR.0>
0

>  <SCORE.INTRA.REPUL>
0

>  <SCORE.INTRA.REPUL.0>
0

>  <SCORE.INTRA.SOLV>
0.550224

>  <SCORE.INTRA.SOLV.lig_0>
-17.3568

>  <SCORE.INTRA.VDW>
-0.517393

>  <SCORE.INTRA.VDW.0>
1.0768

>  <SCORE.INTRA.norm>
-0.302838

>  <SCORE.RESTR>
0.000845587

>  <SCORE.RESTR.CAVITY>
0.000845587

>  <SCORE.RESTR.norm>
3.67647e-05

>  <SCORE.SYSTEM>
0

>  <SCORE.SYSTEM.CONST>
0

>  <SCORE.SYSTEM.DIHEDRAL>
0

>  <SCORE.SYSTEM.SOLV>
0

>  <SCORE.SYSTEM.norm>
0

>  <SCORE.heavy>
23

>  <SCORE.norm>
-1.01563

>  <RMSD>
4.856

$$$$
1uui_lig
 OpenBabel11021811413D
libRbt.so/2013.1/901 2013/11/27
 23 24  0  0  0  0  0  0  0  0999 V2000
  -13.1632   -1.0566    2.3777 C   0  0  0  0  0  0  0  0  0  0  0  0
  -12.6616   -0.5148   -0.4341 O   0  0  0  0  0  0  0  0  0  0  0  0
  -10.0730    2.7938    3.4203 O   0  0  0  0  0  0  0  0  0  0  0  0
  -13.4592    0.2914   -1.3104 C   0  0  0  0  0  0  0  0  0  0  0  0
  -11.0548    3.5481    4.1352 C   0  0  0  0  0  0  0  0  0  0  0  0
  -14.2661   -1.2476    1.3795 N   0  0  0  0  0  0  0  0  0  0  0  0
  -12.5986    0.7511   -2.4882 C   0  0  0  0  0  0  0  0  0  0  0  0
  -15.1527   -0.0537    1.3200 C   0  0  0  0  0  0  0  0  0  0  0  0
  -15.0761   -2.4507    1.7064 C   0  0  0  0  0  0  0  0  0  0  0  0
  -13.0813    2.1165   -2.9879 C   0  0  0  0  0  0  0  0  0  0  0  0
  -15.8292    0.2281    2.6723 C   0  0  0  0  0  0  0  0  0  0  0  0
  -15.7146   -2.3427    3.1017 C   0  0  0  0  0  0  0  0  0  0  0  0
  -12.5907    2.3396   -4.3664 N   0  0  0  0  0  0  0  0  0  0  0  0
  -15.7232   -0.9349    3.6082 N   0  0  0  0  0  0  0  0  0  0  0  0
  -15.8877   -0.7123    4.9880 C   0  0  0  0  0  0  0  0  0  0  0  0
  -14.9711    0.0115    5.6915 N   0  0  0  0  0  0  0  0  0  0  0  0
  -16.8918   -1.3257    5.6771 N   0  0  0  0  0  0  0  0  0  0  0  0
  -12.0102    0.3116    0.5349 C   0  0  0  0  0  0  0  0  0  0  0  0
  -12.2253    0.0852    1.9218 C   0  0  0  0  0  0  0  0  0  0  0  0
  -11.5788    0.9126    2.8817 C   0  0  0  0  0  0  0  0  0  0  0  0
  -10.7208    1.9618    2.4537 C   0  0  0  0  0  0  0  0  0  0  0  0
  -10.5069    2.1845    1.0681 C   0  0  0  0  0  0  0  0  0  0  0  0
  -11.1525    1.3602    0.1092 C   0  0  0  0  0  0  0  0  0  0  0  0
  2  4  1  0  0  0  0
  3  5  1  0  0  0  0
  4  7  1  0  0  0  0
  6  1  1  0  0  0  0
  7 10  1  0  0  0  0
  8  6  1  0  0  0  0
  8 11  1  0  0  0  0
  9  6  1  0  0  0  0
 10 13  1  0  0  0  0
 11 14  1  0  0  0  0
 12  9  1  0  0  0  0
 14 12  1  0  0  0  0
 14 15  1  0  0  0  0
 15 16  1  0  0  0  0
 15 17  1  0  0  0  0
 18  2  1  0  0  0  0
 18 23  2  0  0  0  0
 19  1  1  0  0  0  0
 19 18  1  0  0  0  0
 20 19  2  0  0  0  0
 21  3  1  0  0  0  0
 21 20  1  0  0  0  0
 22 21  2  0  0  0  0
 22 23  1  0  0  0  0
M  END
>  <CHROM.1>
88.69667294,-149.39466502,-65.17309100,-160.47970380,74.43524799,-67.45809932
-8.09538226,-129.39825059,121.94993164,-32.31823597,-65.21604039,-13.36027446
0.36458686,1.61760490,2.20668089,0.65644922,1.54930090

>  <Name>
1uui_lig

>  <RI>
0

>  <Rbt.Current_Directory>
/home/itssahil/PROJECTS/Mol_Feturizer/New_Systems/rnas/1uui

>  <Rbt.Executable>
rbdock ($Id: //depot/dev/client3/rdock/2013.1/src/exe/rbdock.cxx#4 $)

>  <Rbt.Library>
libRbt.so (2013.1, Build901 2013/11/27)

>  <Rbt.Parameter_File>
/export/apps/rDock/src/rDock_2013.1_src/data/scripts/dock_solv.prm

>  <Rbt.Receptor>
prm/pocket_docking_5.prm

>  <SCORE>
-19.424

>  <SCORE.INTER>
-15.6155

>  <SCORE.INTER.CONST>
1

>  <SCORE.INTER.POLAR>
-2.54958

>  <SCORE.INTER.ROT>
10

>  <SCORE.INTER.SOLV>
6.23772

>  <SCORE.INTER.VDW>
-14.2576

>  <SCORE.INTER.norm>
-0.678933

>  <SCORE.INTRA>
-3.8085

>  <SCORE.INTRA.DIHEDRAL>
-3.59175

>  <SCORE.INTRA.DIHEDRAL.0>
23.4151

>  <SCORE.INTRA.POLAR>
-0.563127

>  <SCORE.INTRA.POLAR.0>
0

>  <SCORE.INTRA.REPUL>
0

>  <SCORE.INTRA.REPUL.0>
0

>  <SCORE.INTRA.SOLV>
0.431032

>  <SCORE.INTRA.SOLV.lig_0>
-17.3568

>  <SCORE.INTRA.VDW>
-0.313507

>  <SCORE.INTRA.VDW.0>
1.0768

>  <SCORE.INTRA.norm>
-0.165587

>  <SCORE.RESTR>
0

>  <SCORE.RESTR.CAVITY>
0

>  <SCORE.RESTR.norm>
0

>  <SCORE.SYSTEM>
0

>  <SCORE.SYSTEM.CONST>
0

>  <SCORE.SYSTEM.DIHEDRAL>
0

>  <SCORE.SYSTEM.SOLV>
0

>  <SCORE.SYSTEM.norm>
0

>  <SCORE.heavy>
23

>  <SCORE.norm>
-0.84452

>  <RMSD>
4.894

$$$$
1uui_lig
 OpenBabel11021811413D
libRbt.so/2013.1/901 2013/11/27
 23 24  0  0  0  0  0  0  0  0999 V2000
  -11.2966   -0.0768    2.1432 C   0  0  0  0  0  0  0  0  0  0  0  0
  -11.6360    0.4439   -0.6967 O   0  0  0  0  0  0  0  0  0  0  0  0
   -6.3404   -0.3833    1.2466 O   0  0  0  0  0  0  0  0  0  0  0  0
  -11.7920    1.8041   -1.1204 C   0  0  0  0  0  0  0  0  0  0  0  0
   -6.0970   -1.7844    1.3944 C   0  0  0  0  0  0  0  0  0  0  0  0
  -11.7470    1.3135    2.4806 N   0  0  0  0  0  0  0  0  0  0  0  0
  -11.9875    1.8360   -2.6369 C   0  0  0  0  0  0  0  0  0  0  0  0
  -11.9861    1.4634    3.9418 C   0  0  0  0  0  0  0  0  0  0  0  0
  -12.9851    1.6659    1.7368 C   0  0  0  0  0  0  0  0  0  0  0  0
  -12.2552    3.2714   -3.1004 C   0  0  0  0  0  0  0  0  0  0  0  0
  -13.0851    0.5122    4.4452 C   0  0  0  0  0  0  0  0  0  0  0  0
  -14.1382    0.7024    2.0659 C   0  0  0  0  0  0  0  0  0  0  0  0
  -11.0303    4.0835   -2.9253 N   0  0  0  0  0  0  0  0  0  0  0  0
  -13.8838   -0.0702    3.3216 N   0  0  0  0  0  0  0  0  0  0  0  0
  -14.6126   -1.2523    3.5491 C   0  0  0  0  0  0  0  0  0  0  0  0
  -14.6330   -1.8323    4.7829 N   0  0  0  0  0  0  0  0  0  0  0  0
  -15.2027   -1.9163    2.5144 N   0  0  0  0  0  0  0  0  0  0  0  0
  -10.3086    0.2323   -0.2075 C   0  0  0  0  0  0  0  0  0  0  0  0
  -10.0928   -0.0251    1.1740 C   0  0  0  0  0  0  0  0  0  0  0  0
   -8.7704   -0.2306    1.6566 C   0  0  0  0  0  0  0  0  0  0  0  0
   -7.6695   -0.1783    0.7591 C   0  0  0  0  0  0  0  0  0  0  0  0
   -7.8883    0.0776   -0.6200 C   0  0  0  0  0  0  0  0  0  0  0  0
   -9.2074    0.2839   -1.1026 C   0  0  0  0  0  0  0  0  0  0  0  0
  2  4  1  0  0  0  0
  3  5  1  0  0  0  0
  4  7  1  0  0  0  0
  6  1  1  0  0  0  0
  7 10  1  0  0  0  0
  8  6  1  0  0  0  0
  8 11  1  0  0  0  0
  9  6  1  0  0  0  0
 10 13  1  0  0  0  0
 11 14  1  0  0  0  0
 12  9  1  0  0  0  0
 14 12  1  0  0  0  0
 14 15  1  0  0  0  0
 15 16  1  0  0  0  0
 15 17  1  0  0  0  0
 18  2  1  0  0  0  0
 18 23  2  0  0  0  0
 19  1  1  0  0  0  0
 19 18  1  0  0  0  0
 20 19  2  0  0  0  0
 21  3  1  0  0  0  0
 21 20  1  0  0  0  0
 22 21  2  0  0  0  0
 22 23  1  0  0  0  0
M  END
>  <CHROM.1>
113.13523062,176.02540960,-134.41921434,68.42609229,75.86628167,2.40303484
-19.08916724,-71.47971376,111.96507197,-78.26896537,80.40777971,-11.29201432
0.44631650,1.08017259,-2.43437994,0.20824044,-1.00672979

>  <Name>
1uui_lig

>  <RI>
0

>  <Rbt.Current_Directory>
/home/itssahil/PROJECTS/Mol_Feturizer/New_Systems/rnas/1uui

>  <Rbt.Executable>
rbdock ($Id: //depot/dev/client3/rdock/2013.1/src/exe/rbdock.cxx#4 $)

>  <Rbt.Library>
libRbt.so (2013.1, Build901 2013/11/27)

>  <Rbt.Parameter_File>
/export/apps/rDock/src/rDock_2013.1_src/data/scripts/dock_solv.prm

>  <Rbt.Receptor>
prm/pocket_docking_2.prm

>  <SCORE>
-5.49341

>  <SCORE.INTER>
-5.27731

>  <SCORE.INTER.CONST>
1

>  <SCORE.INTER.POLAR>
-0.711783

>  <SCORE.INTER.ROT>
10

>  <SCORE.INTER.SOLV>
5.75464

>  <SCORE.INTER.VDW>
-13.3305

>  <SCORE.INTER.norm>
-0.229448

>  <SCORE.INTRA>
-0.682913

>  <SCORE.INTRA.DIHEDRAL>
0.58046

>  <SCORE.INTRA.DIHEDRAL.0>
23.4151

>  <SCORE.INTRA.POLAR>
0

>  <SCORE.INTRA.POLAR.0>
0

>  <SCORE.INTRA.REPUL>
0

>  <SCORE.INTRA.REPUL.0>
0

>  <SCORE.INTRA.SOLV>
0.312484

>  <SCORE.INTRA.SOLV.lig_0>
-17.3568

>  <SCORE.INTRA.VDW>
-1.12938

>  <SCORE.INTRA.VDW.0>
1.0768

>  <SCORE.INTRA.norm>
-0.0296919

>  <SCORE.RESTR>
0.466816

>  <SCORE.RESTR.CAVITY>
0.466816

>  <SCORE.RESTR.norm>
0.0202963

>  <SCORE.SYSTEM>
0

>  <SCORE.SYSTEM.CONST>
0

>  <SCORE.SYSTEM.DIHEDRAL>
0

>  <SCORE.SYSTEM.SOLV>
0

>  <SCORE.SYSTEM.norm>
0

>  <SCORE.heavy>
23

>  <SCORE.norm>
-0.238844

>  <RMSD>
4.905

$$$$
1uui_lig
 OpenBabel11021811413D
libRbt.so/2013.1/901 2013/11/27
 23 24  0  0  0  0  0  0  0  0999 V2000
  -11.3302    1.8225   -0.2934 C   0  0  0  0  0  0  0  0  0  0  0  0
   -8.6992    0.6066   -0.0682 O   0  0  0  0  0  0  0  0  0  0  0  0
   -9.5142    5.6739    2.4142 O   0  0  0  0  0  0  0  0  0  0  0  0
   -8.9806   -0.4494    0.8590 C   0  0  0  0  0  0  0  0  0  0  0  0
   -9.9063    5.4835    3.7758 C   0  0  0  0  0  0  0  0  0  0  0  0
  -12.5607    1.7723    0.5625 N   0  0  0  0  0  0  0  0  0  0  0  0
   -8.1243   -1.6664    0.5056 C   0  0  0  0  0  0  0  0  0  0  0  0
  -13.0404    0.3743    0.7364 C   0  0  0  0  0  0  0  0  0  0  0  0
  -13.6484    2.6006   -0.0219 C   0  0  0  0  0  0  0  0  0  0  0  0
   -6.6593   -1.3978    0.8642 C   0  0  0  0  0  0  0  0  0  0  0  0
  -13.4133   -0.2768   -0.6063 C   0  0  0  0  0  0  0  0  0  0  0  0
  -14.0328    2.1194   -1.4314 C   0  0  0  0  0  0  0  0  0  0  0  0
   -6.0627   -2.6185    1.4510 N   0  0  0  0  0  0  0  0  0  0  0  0
  -13.5443    0.7318   -1.7041 N   0  0  0  0  0  0  0  0  0  0  0  0
  -13.4489    0.2973   -3.0392 C   0  0  0  0  0  0  0  0  0  0  0  0
  -12.6260    0.9321   -3.9218 N   0  0  0  0  0  0  0  0  0  0  0  0
  -14.2738   -0.6791   -3.5142 N   0  0  0  0  0  0  0  0  0  0  0  0
   -8.9071    1.8762    0.5571 C   0  0  0  0  0  0  0  0  0  0  0  0
  -10.1768    2.5102    0.4734 C   0  0  0  0  0  0  0  0  0  0  0  0
  -10.3776    3.7750    1.0931 C   0  0  0  0  0  0  0  0  0  0  0  0
   -9.3110    4.4013    1.7933 C   0  0  0  0  0  0  0  0  0  0  0  0
   -8.0447    3.7651    1.8762 C   0  0  0  0  0  0  0  0  0  0  0  0
   -7.8428    2.5034    1.2573 C   0  0  0  0  0  0  0  0  0  0  0  0
  2  4  1  0  0  0  0
  3  5  1  0  0  0  0
  4  7  1  0  0  0  0
  6  1  1  0  0  0  0
  7 10  1  0  0  0  0
  8  6  1  0  0  0  0
  8 11  1  0  0  0  0
  9  6  1  0  0  0  0
 10 13  1  0  0  0  0
 11 14  1  0  0  0  0
 12  9  1  0  0  0  0
 14 12  1  0  0  0  0
 14 15  1  0  0  0  0
 15 16  1  0  0  0  0
 15 17  1  0  0  0  0
 18  2  1  0  0  0  0
 18 23  2  0  0  0  0
 19  1  1  0  0  0  0
 19 18  1  0  0  0  0
 20 19  2  0  0  0  0
 21  3  1  0  0  0  0
 21 20  1  0  0  0  0
 22 21  2  0  0  0  0
 22 23  1  0  0  0  0
M  END
>  <CHROM.1>
-151.01543241,71.81002242,-122.91816405,139.76173259,164.68566948,-130.53610578
-124.61518213,152.55315619,-91.40832629,129.05313972,92.66992815,-10.63730719
1.42126378,0.13136268,2.68898525,0.48262218,-2.67310248

>  <Name>
1uui_lig

>  <RI>
0

>  <Rbt.Current_Directory>
/home/itssahil/PROJECTS/Mol_Feturizer/New_Systems/rnas/1uui

>  <Rbt.Executable>
rbdock ($Id: //depot/dev/client3/rdock/2013.1/src/exe/rbdock.cxx#4 $)

>  <Rbt.Library>
libRbt.so (2013.1, Build901 2013/11/27)

>  <Rbt.Parameter_File>
/export/apps/rDock/src/rDock_2013.1_src/data/scripts/dock_solv.prm

>  <Rbt.Receptor>
prm/pocket_docking_7.prm

>  <SCORE>
-21.3799

>  <SCORE.INTER>
-19.6505

>  <SCORE.INTER.CONST>
1

>  <SCORE.INTER.POLAR>
-3.49898

>  <SCORE.INTER.ROT>
10

>  <SCORE.INTER.SOLV>
6.10505

>  <SCORE.INTER.VDW>
-13.7387

>  <SCORE.INTER.norm>
-0.85437

>  <SCORE.INTRA>
-1.72937

>  <SCORE.INTRA.DIHEDRAL>
2.7176

>  <SCORE.INTRA.DIHEDRAL.0>
23.4151

>  <SCORE.INTRA.POLAR>
0

>  <SCORE.INTRA.POLAR.0>
0

>  <SCORE.INTRA.REPUL>
0

>  <SCORE.INTRA.REPUL.0>
0

>  <SCORE.INTRA.SOLV>
0.00195673

>  <SCORE.INTRA.SOLV.lig_0>
-17.3568

>  <SCORE.INTRA.VDW>
-3.08914

>  <SCORE.INTRA.VDW.0>
1.0768

>  <SCORE.INTRA.norm>
-0.0751899

>  <SCORE.RESTR>
0

>  <SCORE.RESTR.CAVITY>
0

>  <SCORE.RESTR.norm>
0

>  <SCORE.SYSTEM>
0

>  <SCORE.SYSTEM.CONST>
0

>  <SCORE.SYSTEM.DIHEDRAL>
0

>  <SCORE.SYSTEM.SOLV>
0

>  <SCORE.SYSTEM.norm>
0

>  <SCORE.heavy>
23

>  <SCORE.norm>
-0.92956

>  <RMSD>
5.035

$$$$
1uui_lig
 OpenBabel11021811413D
libRbt.so/2013.1/901 2013/11/27
 23 24  0  0  0  0  0  0  0  0999 V2000
  -12.6434    0.7993    2.4689 C   0  0  0  0  0  0  0  0  0  0  0  0
  -12.1488    0.0092   -0.2847 O   0  0  0  0  0  0  0  0  0  0  0  0
   -7.8931    2.4978    2.5788 O   0  0  0  0  0  0  0  0  0  0  0  0
  -12.4498    0.7660   -1.4640 C   0  0  0  0  0  0  0  0  0  0  0  0
   -6.8313    1.5597    2.7703 C   0  0  0  0  0  0  0  0  0  0  0  0
  -12.4507    0.0974    3.7803 N   0  0  0  0  0  0  0  0  0  0  0  0
  -12.9974   -0.1767   -2.5367 C   0  0  0  0  0  0  0  0  0  0  0  0
  -13.6203   -0.7621    4.1090 C   0  0  0  0  0  0  0  0  0  0  0  0
  -12.2295    1.0748    4.8785 C   0  0  0  0  0  0  0  0  0  0  0  0
  -14.5225   -0.2689   -2.4238 C   0  0  0  0  0  0  0  0  0  0  0  0
  -14.9172    0.0553    4.2356 C   0  0  0  0  0  0  0  0  0  0  0  0
  -13.4190    2.0386    5.0283 C   0  0  0  0  0  0  0  0  0  0  0  0
  -15.0320   -1.2510   -3.4068 N   0  0  0  0  0  0  0  0  0  0  0  0
  -14.6487    1.5231    4.3496 N   0  0  0  0  0  0  0  0  0  0  0  0
  -15.6818    2.4275    4.0411 C   0  0  0  0  0  0  0  0  0  0  0  0
  -15.9413    2.7748    2.7484 N   0  0  0  0  0  0  0  0  0  0  0  0
  -16.3561    3.0783    5.0317 N   0  0  0  0  0  0  0  0  0  0  0  0
  -11.0813    0.6303    0.4369 C   0  0  0  0  0  0  0  0  0  0  0  0
  -11.2761    1.0346    1.7859 C   0  0  0  0  0  0  0  0  0  0  0  0
  -10.2129    1.6560    2.4982 C   0  0  0  0  0  0  0  0  0  0  0  0
   -8.9604    1.8712    1.8617 C   0  0  0  0  0  0  0  0  0  0  0  0
   -8.7686    1.4652    0.5149 C   0  0  0  0  0  0  0  0  0  0  0  0
   -9.8292    0.8459   -0.1973 C   0  0  0  0  0  0  0  0  0  0  0  0
  2  4  1  0  0  0  0
  3  5  1  0  0  0  0
  4  7  1  0  0  0  0
  6  1  1  0  0  0  0
  7 10  1  0  0  0  0
  8  6  1  0  0  0  0
  8 11  1  0  0  0  0
  9  6  1  0  0  0  0
 10 13  1  0  0  0  0
 11 14  1  0  0  0  0
 12  9  1  0  0  0  0
 14 12  1  0  0  0  0
 14 15  1  0  0  0  0
 15 16  1  0  0  0  0
 15 17  1  0  0  0  0
 18  2  1  0  0  0  0
 18 23  2  0  0  0  0
 19  1  1  0  0  0  0
 19 18  1  0  0  0  0
 20 19  2  0  0  0  0
 21  3  1  0  0  0  0
 21 20  1  0  0  0  0
 22 21  2  0  0  0  0
 22 23  1  0  0  0  0
M  END
>  <CHROM.1>
151.01655212,90.32237833,-149.71102835,-176.28438511,52.86040501,-82.13953894
-105.95477215,-23.15336893,121.94348621,128.57170204,113.71207996,-12.42148969
1.02459118,1.84531058,-2.27808219,-0.07794813,-1.86395538

>  <Name>
1uui_lig

>  <RI>
0

>  <Rbt.Current_Directory>
/home/itssahil/PROJECTS/Mol_Feturizer/New_Systems/rnas/1uui

>  <Rbt.Executable>
rbdock ($Id: //depot/dev/client3/rdock/2013.1/src/exe/rbdock.cxx#4 $)

>  <Rbt.Library>
libRbt.so (2013.1, Build901 2013/11/27)

>  <Rbt.Parameter_File>
/export/apps/rDock/src/rDock_2013.1_src/data/scripts/dock_solv.prm

>  <Rbt.Receptor>
prm/pocket_docking_6.prm

>  <SCORE>
-21.0399

>  <SCORE.INTER>
-17.5489

>  <SCORE.INTER.CONST>
1

>  <SCORE.INTER.POLAR>
-2.48615

>  <SCORE.INTER.ROT>
10

>  <SCORE.INTER.SOLV>
4.93051

>  <SCORE.INTER.VDW>
-15.3223

>  <SCORE.INTER.norm>
-0.762996

>  <SCORE.INTRA>
-3.5982

>  <SCORE.INTRA.DIHEDRAL>
-3.57884

>  <SCORE.INTRA.DIHEDRAL.0>
23.4151

>  <SCORE.INTRA.POLAR>
0

>  <SCORE.INTRA.POLAR.0>
0

>  <SCORE.INTRA.REPUL>
0

>  <SCORE.INTRA.REPUL.0>
0

>  <SCORE.INTRA.SOLV>
-0.0655453

>  <SCORE.INTRA.SOLV.lig_0>
-17.3568

>  <SCORE.INTRA.VDW>
-1.776

>  <SCORE.INTRA.VDW.0>
1.0768

>  <SCORE.INTRA.norm>
-0.156443

>  <SCORE.RESTR>
0.107215

>  <SCORE.RESTR.CAVITY>
0.107215

>  <SCORE.RESTR.norm>
0.00466153

>  <SCORE.SYSTEM>
0

>  <SCORE.SYSTEM.CONST>
0

>  <SCORE.SYSTEM.DIHEDRAL>
0

>  <SCORE.SYSTEM.SOLV>
0

>  <SCORE.SYSTEM.norm>
0

>  <SCORE.heavy>
23

>  <SCORE.norm>
-0.914777

>  <RMSD>
5.054

$$$$
1uui_lig
 OpenBabel11021811413D
libRbt.so/2013.1/901 2013/11/27
 23 24  0  0  0  0  0  0  0  0999 V2000
  -11.7652    0.7294    2.3364 C   0  0  0  0  0  0  0  0  0  0  0  0
  -12.3420    0.5493   -0.5072 O   0  0  0  0  0  0  0  0  0  0  0  0
   -7.0494   -0.6777    1.2211 O   0  0  0  0  0  0  0  0  0  0  0  0
  -12.4455    1.9472   -0.8055 C   0  0  0  0  0  0  0  0  0  0  0  0
   -6.4409    0.4982    1.7606 C   0  0  0  0  0  0  0  0  0  0  0  0
  -12.1249   -0.4367    3.2084 N   0  0  0  0  0  0  0  0  0  0  0  0
  -13.0188    2.1168   -2.2133 C   0  0  0  0  0  0  0  0  0  0  0  0
  -13.0241   -1.3853    2.4968 C   0  0  0  0  0  0  0  0  0  0  0  0
  -12.7791    0.0201    4.4629 C   0  0  0  0  0  0  0  0  0  0  0  0
  -11.9736    1.7097   -3.2568 C   0  0  0  0  0  0  0  0  0  0  0  0
  -14.3488   -0.7217    2.0834 C   0  0  0  0  0  0  0  0  0  0  0  0
  -14.0668    0.8109    4.1758 C   0  0  0  0  0  0  0  0  0  0  0  0
  -12.4594    2.0679   -4.6082 N   0  0  0  0  0  0  0  0  0  0  0  0
  -14.5686    0.5818    2.7851 N   0  0  0  0  0  0  0  0  0  0  0  0
  -15.4717    1.5072    2.2296 C   0  0  0  0  0  0  0  0  0  0  0  0
  -15.5389    1.6919    0.8805 N   0  0  0  0  0  0  0  0  0  0  0  0
  -16.2019    2.3341    3.0312 N   0  0  0  0  0  0  0  0  0  0  0  0
  -11.0158    0.2382   -0.0708 C   0  0  0  0  0  0  0  0  0  0  0  0
  -10.6861    0.3128    1.3101 C   0  0  0  0  0  0  0  0  0  0  0  0
   -9.3646    0.0069    1.7389 C   0  0  0  0  0  0  0  0  0  0  0  0
   -8.3781   -0.3722    0.7883 C   0  0  0  0  0  0  0  0  0  0  0  0
   -8.7108   -0.4471   -0.5897 C   0  0  0  0  0  0  0  0  0  0  0  0
  -10.0290   -0.1409   -1.0190 C   0  0  0  0  0  0  0  0  0  0  0  0
  2  4  1  0  0  0  0
  3  5  1  0  0  0  0
  4  7  1  0  0  0  0
  6  1  1  0  0  0  0
  7 10  1  0  0  0  0
  8  6  1  0  0  0  0
  8 11  1  0  0  0  0
  9  6  1  0  0  0  0
 10 13  1  0  0  0  0
 11 14  1  0  0  0  0
 12  9  1  0  0  0  0
 14 12  1  0  0  0  0
 14 15  1  0  0  0  0
 15 16  1  0  0  0  0
 15 17  1  0  0  0  0
 18  2  1  0  0  0  0
 18 23  2  0  0  0  0
 19  1  1  0  0  0  0
 19 18  1  0  0  0  0
 20 19  2  0  0  0  0
 21  3  1  0  0  0  0
 21 20  1  0  0  0  0
 22 21  2  0  0  0  0
 22 23  1  0  0  0  0
M  END
>  <CHROM.1>
127.49785528,-71.72996607,-77.32494610,-171.52237599,-65.44190295,-39.01077502
175.20754182,152.78504531,89.74547754,111.40329337,-65.16703395,-11.96270338
0.59846602,0.90154080,-2.79544136,0.24115982,-1.31479480

>  <Name>
1uui_lig

>  <RI>
0

>  <Rbt.Current_Directory>
/home/itssahil/PROJECTS/Mol_Feturizer/New_Systems/rnas/1uui

>  <Rbt.Executable>
rbdock ($Id: //depot/dev/client3/rdock/2013.1/src/exe/rbdock.cxx#4 $)

>  <Rbt.Library>
libRbt.so (2013.1, Build901 2013/11/27)

>  <Rbt.Parameter_File>
/export/apps/rDock/src/rDock_2013.1_src/data/scripts/dock_solv.prm

>  <Rbt.Receptor>
prm/pocket_docking_3.prm

>  <SCORE>
-16.4653

>  <SCORE.INTER>
-13.1949

>  <SCORE.INTER.CONST>
1

>  <SCORE.INTER.POLAR>
-2.05713

>  <SCORE.INTER.ROT>
10

>  <SCORE.INTER.SOLV>
5.76834

>  <SCORE.INTER.VDW>
-14.129

>  <SCORE.INTER.norm>
-0.573691

>  <SCORE.INTRA>
-3.66573

>  <SCORE.INTRA.DIHEDRAL>
-1.69965

>  <SCORE.INTRA.DIHEDRAL.0>
23.4151

>  <SCORE.INTRA.POLAR>
0

>  <SCORE.INTRA.POLAR.0>
0

>  <SCORE.INTRA.REPUL>
0

>  <SCORE.INTRA.REPUL.0>
0

>  <SCORE.INTRA.SOLV>
0.754118

>  <SCORE.INTRA.SOLV.lig_0>
-17.3568

>  <SCORE.INTRA.VDW>
-3.19296

>  <SCORE.INTRA.VDW.0>
1.0768

>  <SCORE.INTRA.norm>
-0.15938

>  <SCORE.RESTR>
0.395317

>  <SCORE.RESTR.CAVITY>
0.395317

>  <SCORE.RESTR.norm>
0.0171877

>  <SCORE.SYSTEM>
0

>  <SCORE.SYSTEM.CONST>
0

>  <SCORE.SYSTEM.DIHEDRAL>
0

>  <SCORE.SYSTEM.SOLV>
0

>  <SCORE.SYSTEM.norm>
0

>  <SCORE.heavy>
23

>  <SCORE.norm>
-0.715883

>  <RMSD>
5.064

$$$$
1uui_lig
 OpenBabel11021811413D
libRbt.so/2013.1/901 2013/11/27
 23 24  0  0  0  0  0  0  0  0999 V2000
  -12.5674    0.8059    1.5436 C   0  0  0  0  0  0  0  0  0  0  0  0
  -14.4576    2.1371   -0.2189 O   0  0  0  0  0  0  0  0  0  0  0  0
   -9.2596    0.9929   -2.2623 O   0  0  0  0  0  0  0  0  0  0  0  0
  -15.4136    1.2140   -0.7556 C   0  0  0  0  0  0  0  0  0  0  0  0
   -8.4833    2.1933   -2.2844 C   0  0  0  0  0  0  0  0  0  0  0  0
  -12.9533   -0.6422    1.6047 N   0  0  0  0  0  0  0  0  0  0  0  0
  -15.7123    1.5914   -2.2074 C   0  0  0  0  0  0  0  0  0  0  0  0
  -14.4297   -0.8034    1.6996 C   0  0  0  0  0  0  0  0  0  0  0  0
  -12.3056   -1.3161    2.7609 C   0  0  0  0  0  0  0  0  0  0  0  0
  -15.9940    0.3295   -3.0291 C   0  0  0  0  0  0  0  0  0  0  0  0
  -15.0000   -0.1438    2.9667 C   0  0  0  0  0  0  0  0  0  0  0  0
  -12.7058   -0.6634    4.0950 C   0  0  0  0  0  0  0  0  0  0  0  0
  -14.7219   -0.2063   -3.5632 N   0  0  0  0  0  0  0  0  0  0  0  0
  -13.9303    0.1855    3.9602 N   0  0  0  0  0  0  0  0  0  0  0  0
  -14.1958    1.1533    4.9469 C   0  0  0  0  0  0  0  0  0  0  0  0
  -13.3085    2.1585    5.1940 N   0  0  0  0  0  0  0  0  0  0  0  0
  -15.2780    1.0317    5.7677 N   0  0  0  0  0  0  0  0  0  0  0  0
  -13.1540    1.8456   -0.7307 C   0  0  0  0  0  0  0  0  0  0  0  0
  -12.1954    1.1962    0.0943 C   0  0  0  0  0  0  0  0  0  0  0  0
  -10.8988    0.9124   -0.4176 C   0  0  0  0  0  0  0  0  0  0  0  0
  -10.5644    1.2775   -1.7499 C   0  0  0  0  0  0  0  0  0  0  0  0
  -11.5242    1.9246   -2.5717 C   0  0  0  0  0  0  0  0  0  0  0  0
  -12.8182    2.2094   -2.0616 C   0  0  0  0  0  0  0  0  0  0  0  0
  2  4  1  0  0  0  0
  3  5  1  0  0  0  0
  4  7  1  0  0  0  0
  6  1  1  0  0  0  0
  7 10  1  0  0  0  0
  8  6  1  0  0  0  0
  8 11  1  0  0  0  0
  9  6  1  0  0  0  0
 10 13  1  0  0  0  0
 11 14  1  0  0  0  0
 12  9  1  0  0  0  0
 14 12  1  0  0  0  0
 14 15  1  0  0  0  0
 15 16  1  0  0  0  0
 15 17  1  0  0  0  0
 18  2  1  0  0  0  0
 18 23  2  0  0  0  0
 19  1  1  0  0  0  0
 19 18  1  0  0  0  0
 20 19  2  0  0  0  0
 21  3  1  0  0  0  0
 21 20  1  0  0  0  0
 22 21  2  0  0  0  0
 22 23  1  0  0  0  0
M  END
>  <CHROM.1>
-75.43435939,146.70094547,-103.28689692,-88.14100192,78.65173856,-131.74466854
53.36797589,-73.78259696,-104.34757232,98.48574580,-103.53854480,-13.15127588
0.83032336,0.58130765,-1.85748596,-0.10707177,-1.48544449

>  <Name>
1uui_lig

>  <RI>
0

>  <Rbt.Current_Directory>
/home/itssahil/PROJECTS/Mol_Feturizer/New_Systems/rnas/1uui

>  <Rbt.Executable>
rbdock ($Id: //depot/dev/client3/rdock/2013.1/src/exe/rbdock.cxx#4 $)

>  <Rbt.Library>
libRbt.so (2013.1, Build901 2013/11/27)

>  <Rbt.Parameter_File>
/export/apps/rDock/src/rDock_2013.1_src/data/scripts/dock_solv.prm

>  <Rbt.Receptor>
prm/pocket_docking_5.prm

>  <SCORE>
-16.4052

>  <SCORE.INTER>
-14.2056

>  <SCORE.INTER.CONST>
1

>  <SCORE.INTER.POLAR>
-2.64847

>  <SCORE.INTER.ROT>
10

>  <SCORE.INTER.SOLV>
4.90578

>  <SCORE.INTER.VDW>
-12.5441

>  <SCORE.INTER.norm>
-0.617635

>  <SCORE.INTRA>
-2.41501

>  <SCORE.INTRA.DIHEDRAL>
0.636091

>  <SCORE.INTRA.DIHEDRAL.0>
23.4151

>  <SCORE.INTRA.POLAR>
0

>  <SCORE.INTRA.POLAR.0>
0

>  <SCORE.INTRA.REPUL>
0

>  <SCORE.INTRA.REPUL.0>
0

>  <SCORE.INTRA.SOLV>
0.441304

>  <SCORE.INTRA.SOLV.lig_0>
-17.3568

>  <SCORE.INTRA.VDW>
-2.95371

>  <SCORE.INTRA.VDW.0>
1.0768

>  <SCORE.INTRA.norm>
-0.105

>  <SCORE.RESTR>
0.21543

>  <SCORE.RESTR.CAVITY>
0.21543

>  <SCORE.RESTR.norm>
0.00936653

>  <SCORE.SYSTEM>
0

>  <SCORE.SYSTEM.CONST>
0

>  <SCORE.SYSTEM.DIHEDRAL>
0

>  <SCORE.SYSTEM.SOLV>
0

>  <SCORE.SYSTEM.norm>
0

>  <SCORE.heavy>
23

>  <SCORE.norm>
-0.713269

>  <RMSD>
5.112

$$$$
1uui_lig
 OpenBabel11021811413D
libRbt.so/2013.1/901 2013/11/27
 23 24  0  0  0  0  0  0  0  0999 V2000
  -12.5053    0.8729    3.7279 C   0  0  0  0  0  0  0  0  0  0  0  0
  -14.4886    0.2247    1.7036 O   0  0  0  0  0  0  0  0  0  0  0  0
  -11.7479    5.2034    1.2510 O   0  0  0  0  0  0  0  0  0  0  0  0
  -14.2912   -0.5561    0.5182 C   0  0  0  0  0  0  0  0  0  0  0  0
  -12.1867    6.0835    2.2888 C   0  0  0  0  0  0  0  0  0  0  0  0
  -13.7777    0.3107    4.2887 N   0  0  0  0  0  0  0  0  0  0  0  0
  -15.1479   -1.8202    0.6039 C   0  0  0  0  0  0  0  0  0  0  0  0
  -14.4517    1.2899    5.1840 C   0  0  0  0  0  0  0  0  0  0  0  0
  -13.5182   -0.9479    5.0364 C   0  0  0  0  0  0  0  0  0  0  0  0
  -16.6338   -1.4470    0.6018 C   0  0  0  0  0  0  0  0  0  0  0  0
  -13.5720    1.6690    6.3875 C   0  0  0  0  0  0  0  0  0  0  0  0
  -12.5450   -0.7224    6.2060 C   0  0  0  0  0  0  0  0  0  0  0  0
  -17.0036   -0.8995   -0.7225 N   0  0  0  0  0  0  0  0  0  0  0  0
  -12.4247    0.7248    6.5658 N   0  0  0  0  0  0  0  0  0  0  0  0
  -11.3088    1.1468    7.3123 C   0  0  0  0  0  0  0  0  0  0  0  0
  -10.6400    0.2751    8.1197 N   0  0  0  0  0  0  0  0  0  0  0  0
  -10.9538    2.4629    7.3499 N   0  0  0  0  0  0  0  0  0  0  0  0
  -13.7970    1.4716    1.5900 C   0  0  0  0  0  0  0  0  0  0  0  0
  -12.8188    1.8325    2.5566 C   0  0  0  0  0  0  0  0  0  0  0  0
  -12.1367    3.0757    2.4419 C   0  0  0  0  0  0  0  0  0  0  0  0
  -12.4334    3.9530    1.3637 C   0  0  0  0  0  0  0  0  0  0  0  0
  -13.4097    3.5892    0.3994 C   0  0  0  0  0  0  0  0  0  0  0  0
  -14.0919    2.3493    0.5134 C   0  0  0  0  0  0  0  0  0  0  0  0
  2  4  1  0  0  0  0
  3  5  1  0  0  0  0
  4  7  1  0  0  0  0
  6  1  1  0  0  0  0
  7 10  1  0  0  0  0
  8  6  1  0  0  0  0
  8 11  1  0  0  0  0
  9  6  1  0  0  0  0
 10 13  1  0  0  0  0
 11 14  1  0  0  0  0
 12  9  1  0  0  0  0
 14 12  1  0  0  0  0
 14 15  1  0  0  0  0
 15 16  1  0  0  0  0
 15 17  1  0  0  0  0
 18  2  1  0  0  0  0
 18 23  2  0  0  0  0
 19  1  1  0  0  0  0
 19 18  1  0  0  0  0
 20 19  2  0  0  0  0
 21  3  1  0  0  0  0
 21 20  1  0  0  0  0
 22 21  2  0  0  0  0
 22 23  1  0  0  0  0
M  END
>  <CHROM.1>
-174.49955477,64.88784477,-78.86462632,68.13227292,-53.26969475,143.27953431
-82.44914040,132.75485158,-122.28667313,-43.04671598,-70.44919836,-13.31141146
1.28531939,3.30018245,0.63573276,0.96795186,2.28508666

>  <Name>
1uui_lig

>  <RI>
0

>  <Rbt.Current_Directory>
/home/itssahil/PROJECTS/Mol_Feturizer/New_Systems/rnas/1uui

>  <Rbt.Executable>
rbdock ($Id: //depot/dev/client3/rdock/2013.1/src/exe/rbdock.cxx#4 $)

>  <Rbt.Library>
libRbt.so (2013.1, Build901 2013/11/27)

>  <Rbt.Parameter_File>
/export/apps/rDock/src/rDock_2013.1_src/data/scripts/dock_solv.prm

>  <Rbt.Receptor>
prm/pocket_docking_6.prm

>  <SCORE>
-25.7721

>  <SCORE.INTER>
-17.1417

>  <SCORE.INTER.CONST>
1

>  <SCORE.INTER.POLAR>
-2.40724

>  <SCORE.INTER.ROT>
10

>  <SCORE.INTER.SOLV>
7.74168

>  <SCORE.INTER.VDW>
-16.2509

>  <SCORE.INTER.norm>
-0.745289

>  <SCORE.INTRA>
-9.07708

>  <SCORE.INTRA.DIHEDRAL>
-10.0189

>  <SCORE.INTRA.DIHEDRAL.0>
23.4151

>  <SCORE.INTRA.POLAR>
-0.800248

>  <SCORE.INTRA.POLAR.0>
0

>  <SCORE.INTRA.REPUL>
0

>  <SCORE.INTRA.REPUL.0>
0

>  <SCORE.INTRA.SOLV>
0.543239

>  <SCORE.INTRA.SOLV.lig_0>
-17.3568

>  <SCORE.INTRA.VDW>
-1.61839

>  <SCORE.INTRA.VDW.0>
1.0768

>  <SCORE.INTRA.norm>
-0.394656

>  <SCORE.RESTR>
0.446661

>  <SCORE.RESTR.CAVITY>
0.446661

>  <SCORE.RESTR.norm>
0.01942

>  <SCORE.SYSTEM>
0

>  <SCORE.SYSTEM.CONST>
0

>  <SCORE.SYSTEM.DIHEDRAL>
0

>  <SCORE.SYSTEM.SOLV>
0

>  <SCORE.SYSTEM.norm>
0

>  <SCORE.heavy>
23

>  <SCORE.norm>
-1.12052

>  <RMSD>
5.126

$$$$
1uui_lig
 OpenBabel11021811413D
libRbt.so/2013.1/901 2013/11/27
 23 24  0  0  0  0  0  0  0  0999 V2000
   -9.4249    2.9187   -0.5897 C   0  0  0  0  0  0  0  0  0  0  0  0
   -9.1562    0.9574   -2.7186 O   0  0  0  0  0  0  0  0  0  0  0  0
  -13.7389    4.3483   -2.7823 O   0  0  0  0  0  0  0  0  0  0  0  0
   -7.9979    1.6822   -3.1513 C   0  0  0  0  0  0  0  0  0  0  0  0
  -13.3826    5.6266   -3.3142 C   0  0  0  0  0  0  0  0  0  0  0  0
  -10.1030    3.1572    0.7267 N   0  0  0  0  0  0  0  0  0  0  0  0
   -8.1128    1.9587   -4.6512 C   0  0  0  0  0  0  0  0  0  0  0  0
   -9.1100    3.3324    1.8212 C   0  0  0  0  0  0  0  0  0  0  0  0
  -11.0190    2.0355    1.0632 C   0  0  0  0  0  0  0  0  0  0  0  0
   -6.7220    1.9488   -5.2935 C   0  0  0  0  0  0  0  0  0  0  0  0
   -8.2276    2.0856    2.0021 C   0  0  0  0  0  0  0  0  0  0  0  0
  -10.2669    0.6968    1.1544 C   0  0  0  0  0  0  0  0  0  0  0  0
   -6.2493    0.5526   -5.4265 N   0  0  0  0  0  0  0  0  0  0  0  0
   -8.7905    0.8906    1.2988 N   0  0  0  0  0  0  0  0  0  0  0  0
   -7.9333   -0.1831    0.9940 C   0  0  0  0  0  0  0  0  0  0  0  0
   -6.8980   -0.0227    0.1214 N   0  0  0  0  0  0  0  0  0  0  0  0
   -8.1973   -1.4380    1.4579 N   0  0  0  0  0  0  0  0  0  0  0  0
  -10.3032    1.8119   -2.7347 C   0  0  0  0  0  0  0  0  0  0  0  0
  -10.4782    2.7860   -1.7140 C   0  0  0  0  0  0  0  0  0  0  0  0
  -11.6229    3.6305   -1.7316 C   0  0  0  0  0  0  0  0  0  0  0  0
  -12.5877    3.4995   -2.7672 C   0  0  0  0  0  0  0  0  0  0  0  0
  -12.4094    2.5268   -3.7857 C   0  0  0  0  0  0  0  0  0  0  0  0
  -11.2680    1.6826   -3.7685 C   0  0  0  0  0  0  0  0  0  0  0  0
  2  4  1  0  0  0  0
  3  5  1  0  0  0  0
  4  7  1  0  0  0  0
  6  1  1  0  0  0  0
  7 10  1  0  0  0  0
  8  6  1  0  0  0  0
  8 11  1  0  0  0  0
  9  6  1  0  0  0  0
 10 13  1  0  0  0  0
 11 14  1  0  0  0  0
 12  9  1  0  0  0  0
 14 12  1  0  0  0  0
 14 15  1  0  0  0  0
 15 16  1  0  0  0  0
 15 17  1  0  0  0  0
 18  2  1  0  0  0  0
 18 23  2  0  0  0  0
 19  1  1  0  0  0  0
 19 18  1  0  0  0  0
 20 19  2  0  0  0  0
 21  3  1  0  0  0  0
 21 20  1  0  0  0  0
 22 21  2  0  0  0  0
 22 23  1  0  0  0  0
M  END
>  <CHROM.1>
-70.85504186,-147.04972722,-178.18189966,75.58692390,47.67755017,-64.41582405
-20.64533714,67.04931946,-75.66033142,-139.95593461,79.61677417,-9.67327421
1.98209934,-1.46925959,0.79030386,-0.57905780,1.71281911

>  <Name>
1uui_lig

>  <RI>
0

>  <Rbt.Current_Directory>
/home/itssahil/PROJECTS/Mol_Feturizer/New_Systems/rnas/1uui

>  <Rbt.Executable>
rbdock ($Id: //depot/dev/client3/rdock/2013.1/src/exe/rbdock.cxx#4 $)

>  <Rbt.Library>
libRbt.so (2013.1, Build901 2013/11/27)

>  <Rbt.Parameter_File>
/export/apps/rDock/src/rDock_2013.1_src/data/scripts/dock_solv.prm

>  <Rbt.Receptor>
prm/pocket_docking_7.prm

>  <SCORE>
-25.7382

>  <SCORE.INTER>
-21.141

>  <SCORE.INTER.CONST>
1

>  <SCORE.INTER.POLAR>
-3.74835

>  <SCORE.INTER.ROT>
10

>  <SCORE.INTER.SOLV>
5.61945

>  <SCORE.INTER.VDW>
-13.7393

>  <SCORE.INTER.norm>
-0.919172

>  <SCORE.INTRA>
-4.59726

>  <SCORE.INTRA.DIHEDRAL>
-4.95869

>  <SCORE.INTRA.DIHEDRAL.0>
23.4151

>  <SCORE.INTRA.POLAR>
0

>  <SCORE.INTRA.POLAR.0>
0

>  <SCORE.INTRA.REPUL>
0

>  <SCORE.INTRA.REPUL.0>
0

>  <SCORE.INTRA.SOLV>
0.546022

>  <SCORE.INTRA.SOLV.lig_0>
-17.3568

>  <SCORE.INTRA.VDW>
-2.39093

>  <SCORE.INTRA.VDW.0>
1.0768

>  <SCORE.INTRA.norm>
-0.199881

>  <SCORE.RESTR>
0

>  <SCORE.RESTR.CAVITY>
0

>  <SCORE.RESTR.norm>
0

>  <SCORE.SYSTEM>
0

>  <SCORE.SYSTEM.CONST>
0

>  <SCORE.SYSTEM.DIHEDRAL>
0

>  <SCORE.SYSTEM.SOLV>
0

>  <SCORE.SYSTEM.norm>
0

>  <SCORE.heavy>
23

>  <SCORE.norm>
-1.11905

>  <RMSD>
5.275

$$$$
1uui_lig
 OpenBabel11021811413D
libRbt.so/2013.1/901 2013/11/27
 23 24  0  0  0  0  0  0  0  0999 V2000
  -13.8222    0.4774    2.0495 C   0  0  0  0  0  0  0  0  0  0  0  0
  -12.3725    0.5195   -0.4700 O   0  0  0  0  0  0  0  0  0  0  0  0
  -17.6047   -1.7449   -0.4436 O   0  0  0  0  0  0  0  0  0  0  0  0
  -12.4483    1.9382   -0.6587 C   0  0  0  0  0  0  0  0  0  0  0  0
  -17.5831   -2.9830    0.2710 C   0  0  0  0  0  0  0  0  0  0  0  0
  -12.3945    0.0374    2.1818 N   0  0  0  0  0  0  0  0  0  0  0  0
  -11.9502    2.2830   -2.0630 C   0  0  0  0  0  0  0  0  0  0  0  0
  -12.2731   -1.1342    3.0915 C   0  0  0  0  0  0  0  0  0  0  0  0
  -11.5413    1.1462    2.6850 C   0  0  0  0  0  0  0  0  0  0  0  0
  -12.8961    1.6927   -3.1137 C   0  0  0  0  0  0  0  0  0  0  0  0
  -12.7662   -0.8125    4.5125 C   0  0  0  0  0  0  0  0  0  0  0  0
  -12.0123    1.6442    4.0621 C   0  0  0  0  0  0  0  0  0  0  0  0
  -12.4555    2.1086   -4.4641 N   0  0  0  0  0  0  0  0  0  0  0  0
  -12.9140    0.6597    4.7373 N   0  0  0  0  0  0  0  0  0  0  0  0
  -13.7410    1.1061    5.7849 C   0  0  0  0  0  0  0  0  0  0  0  0
  -13.2392    1.8836    6.7862 N   0  0  0  0  0  0  0  0  0  0  0  0
  -15.0257    0.6625    5.8948 N   0  0  0  0  0  0  0  0  0  0  0  0
  -13.6870   -0.0446   -0.4618 C   0  0  0  0  0  0  0  0  0  0  0  0
  -14.4342   -0.0880    0.7469 C   0  0  0  0  0  0  0  0  0  0  0  0
  -15.7394   -0.6542    0.7512 C   0  0  0  0  0  0  0  0  0  0  0  0
  -16.2930   -1.1744   -0.4502 C   0  0  0  0  0  0  0  0  0  0  0  0
  -15.5448   -1.1284   -1.6558 C   0  0  0  0  0  0  0  0  0  0  0  0
  -14.2418   -0.5647   -1.6610 C   0  0  0  0  0  0  0  0  0  0  0  0
  2  4  1  0  0  0  0
  3  5  1  0  0  0  0
  4  7  1  0  0  0  0
  6  1  1  0  0  0  0
  7 10  1  0  0  0  0
  8  6  1  0  0  0  0
  8 11  1  0  0  0  0
  9  6  1  0  0  0  0
 10 13  1  0  0  0  0
 11 14  1  0  0  0  0
 12  9  1  0  0  0  0
 14 12  1  0  0  0  0
 14 15  1  0  0  0  0
 15 16  1  0  0  0  0
 15 17  1  0  0  0  0
 18  2  1  0  0  0  0
 18 23  2  0  0  0  0
 19  1  1  0  0  0  0
 19 18  1  0  0  0  0
 20 19  2  0  0  0  0
 21  3  1  0  0  0  0
 21 20  1  0  0  0  0
 22 21  2  0  0  0  0
 22 23  1  0  0  0  0
M  END
>  <CHROM.1>
-108.48394294,65.36749530,-98.85352464,176.23174219,-61.36195394,121.06267794
-55.35968228,-35.71868858,-85.98645411,-43.88659315,-70.09003600,-13.76391619
0.28244949,1.23756044,1.45008210,0.63087731,1.60066666

>  <Name>
1uui_lig

>  <RI>
0

>  <Rbt.Current_Directory>
/home/itssahil/PROJECTS/Mol_Feturizer/New_Systems/rnas/1uui

>  <Rbt.Executable>
rbdock ($Id: //depot/dev/client3/rdock/2013.1/src/exe/rbdock.cxx#4 $)

>  <Rbt.Library>
libRbt.so (2013.1, Build901 2013/11/27)

>  <Rbt.Parameter_File>
/export/apps/rDock/src/rDock_2013.1_src/data/scripts/dock_solv.prm

>  <Rbt.Receptor>
prm/pocket_docking_6.prm

>  <SCORE>
-20.3032

>  <SCORE.INTER>
-15.8934

>  <SCORE.INTER.CONST>
1

>  <SCORE.INTER.POLAR>
-2.01904

>  <SCORE.INTER.ROT>
10

>  <SCORE.INTER.SOLV>
7.43572

>  <SCORE.INTER.VDW>
-16.6107

>  <SCORE.INTER.norm>
-0.691018

>  <SCORE.INTRA>
-4.40975

>  <SCORE.INTRA.DIHEDRAL>
-0.698949

>  <SCORE.INTRA.DIHEDRAL.0>
23.4151

>  <SCORE.INTRA.POLAR>
-0.563412

>  <SCORE.INTRA.POLAR.0>
0

>  <SCORE.INTRA.REPUL>
0

>  <SCORE.INTRA.REPUL.0>
0

>  <SCORE.INTRA.SOLV>
0.372198

>  <SCORE.INTRA.SOLV.lig_0>
-17.3568

>  <SCORE.INTRA.VDW>
-2.33077

>  <SCORE.INTRA.VDW.0>
1.0768

>  <SCORE.INTRA.norm>
-0.191728

>  <SCORE.RESTR>
0

>  <SCORE.RESTR.CAVITY>
0

>  <SCORE.RESTR.norm>
0

>  <SCORE.SYSTEM>
0

>  <SCORE.SYSTEM.CONST>
0

>  <SCORE.SYSTEM.DIHEDRAL>
0

>  <SCORE.SYSTEM.SOLV>
0

>  <SCORE.SYSTEM.norm>
0

>  <SCORE.heavy>
23

>  <SCORE.norm>
-0.882746

>  <RMSD>
5.298

$$$$
1uui_lig
 OpenBabel11021811413D
libRbt.so/2013.1/901 2013/11/27
 23 24  0  0  0  0  0  0  0  0999 V2000
  -10.2368    1.1544   -0.8612 C   0  0  0  0  0  0  0  0  0  0  0  0
   -7.8539   -0.1465    0.1784 O   0  0  0  0  0  0  0  0  0  0  0  0
  -10.0582    4.1698    3.1807 O   0  0  0  0  0  0  0  0  0  0  0  0
   -6.6984    0.3013   -0.5416 C   0  0  0  0  0  0  0  0  0  0  0  0
   -9.7107    5.4086    2.5572 C   0  0  0  0  0  0  0  0  0  0  0  0
  -11.3479    0.1865   -0.5816 N   0  0  0  0  0  0  0  0  0  0  0  0
   -6.1808   -0.8415   -1.4165 C   0  0  0  0  0  0  0  0  0  0  0  0
  -11.8767   -0.4060   -1.8402 C   0  0  0  0  0  0  0  0  0  0  0  0
  -12.4549    0.8479    0.1584 C   0  0  0  0  0  0  0  0  0  0  0  0
   -5.7643   -2.0258   -0.5386 C   0  0  0  0  0  0  0  0  0  0  0  0
  -12.4544    0.6647   -2.7814 C   0  0  0  0  0  0  0  0  0  0  0  0
  -13.0432    2.0267   -0.6356 C   0  0  0  0  0  0  0  0  0  0  0  0
   -6.9655   -2.6249    0.0849 N   0  0  0  0  0  0  0  0  0  0  0  0
  -12.6703    1.9707   -2.0834 N   0  0  0  0  0  0  0  0  0  0  0  0
  -12.7714    3.1434   -2.8548 C   0  0  0  0  0  0  0  0  0  0  0  0
  -13.3613    3.1207   -4.0838 N   0  0  0  0  0  0  0  0  0  0  0  0
  -12.1646    4.2962   -2.4517 N   0  0  0  0  0  0  0  0  0  0  0  0
   -8.4110    0.9342    0.9319 C   0  0  0  0  0  0  0  0  0  0  0  0
   -9.5754    1.6016    0.4631 C   0  0  0  0  0  0  0  0  0  0  0  0
  -10.1233    2.6789    1.2137 C   0  0  0  0  0  0  0  0  0  0  0  0
   -9.5070    3.0853    2.4283 C   0  0  0  0  0  0  0  0  0  0  0  0
   -8.3451    2.4161    2.8945 C   0  0  0  0  0  0  0  0  0  0  0  0
   -7.7968    1.3416    2.1457 C   0  0  0  0  0  0  0  0  0  0  0  0
  2  4  1  0  0  0  0
  3  5  1  0  0  0  0
  4  7  1  0  0  0  0
  6  1  1  0  0  0  0
  7 10  1  0  0  0  0
  8  6  1  0  0  0  0
  8 11  1  0  0  0  0
  9  6  1  0  0  0  0
 10 13  1  0  0  0  0
 11 14  1  0  0  0  0
 12  9  1  0  0  0  0
 14 12  1  0  0  0  0
 14 15  1  0  0  0  0
 15 16  1  0  0  0  0
 15 17  1  0  0  0  0
 18  2  1  0  0  0  0
 18 23  2  0  0  0  0
 19  1  1  0  0  0  0
 19 18  1  0  0  0  0
 20 19  2  0  0  0  0
 21  3  1  0  0  0  0
 21 20  1  0  0  0  0
 22 21  2  0  0  0  0
 22 23  1  0  0  0  0
M  END
>  <CHROM.1>
-175.94755629,-61.63549911,-172.05204336,68.32095415,168.36051202,34.72515244
-165.40748547,116.48965610,102.54447360,95.03169846,-76.81538607,-9.98908421
1.43265050,-0.23666938,3.08643534,-0.61671355,0.79069860

>  <Name>
1uui_lig

>  <RI>
0

>  <Rbt.Current_Directory>
/home/itssahil/PROJECTS/Mol_Feturizer/New_Systems/rnas/1uui

>  <Rbt.Executable>
rbdock ($Id: //depot/dev/client3/rdock/2013.1/src/exe/rbdock.cxx#4 $)

>  <Rbt.Library>
libRbt.so (2013.1, Build901 2013/11/27)

>  <Rbt.Parameter_File>
/export/apps/rDock/src/rDock_2013.1_src/data/scripts/dock_solv.prm

>  <Rbt.Receptor>
prm/pocket_docking_6.prm

>  <SCORE>
-29.43

>  <SCORE.INTER>
-21.7407

>  <SCORE.INTER.CONST>
1

>  <SCORE.INTER.POLAR>
-4.19534

>  <SCORE.INTER.ROT>
10

>  <SCORE.INTER.SOLV>
4.79129

>  <SCORE.INTER.VDW>
-12.3731

>  <SCORE.INTER.norm>
-0.94525

>  <SCORE.INTRA>
-7.68922

>  <SCORE.INTRA.DIHEDRAL>
-9.27468

>  <SCORE.INTRA.DIHEDRAL.0>
23.4151

>  <SCORE.INTRA.POLAR>
-0.316342

>  <SCORE.INTRA.POLAR.0>
0

>  <SCORE.INTRA.REPUL>
0

>  <SCORE.INTRA.REPUL.0>
0

>  <SCORE.INTRA.SOLV>
0.669539

>  <SCORE.INTRA.SOLV.lig_0>
-17.3568

>  <SCORE.INTRA.VDW>
-2.31109

>  <SCORE.INTRA.VDW.0>
1.0768

>  <SCORE.INTRA.norm>
-0.334314

>  <SCORE.RESTR>
0

>  <SCORE.RESTR.CAVITY>
0

>  <SCORE.RESTR.norm>
0

>  <SCORE.SYSTEM>
0

>  <SCORE.SYSTEM.CONST>
0

>  <SCORE.SYSTEM.DIHEDRAL>
0

>  <SCORE.SYSTEM.SOLV>
0

>  <SCORE.SYSTEM.norm>
0

>  <SCORE.heavy>
23

>  <SCORE.norm>
-1.27956

>  <RMSD>
5.343

$$$$
1uui_lig
 OpenBabel11021811413D
libRbt.so/2013.1/901 2013/11/27
 23 24  0  0  0  0  0  0  0  0999 V2000
  -12.4710    0.1697    2.0486 C   0  0  0  0  0  0  0  0  0  0  0  0
  -13.2899    0.4848   -0.7229 O   0  0  0  0  0  0  0  0  0  0  0  0
  -15.9113   -3.5055    2.3930 O   0  0  0  0  0  0  0  0  0  0  0  0
  -12.2153   -0.1050   -1.4655 C   0  0  0  0  0  0  0  0  0  0  0  0
  -17.0343   -2.9290    3.0643 C   0  0  0  0  0  0  0  0  0  0  0  0
  -12.8687    1.6153    2.0093 N   0  0  0  0  0  0  0  0  0  0  0  0
  -11.4896    0.9896   -2.2493 C   0  0  0  0  0  0  0  0  0  0  0  0
  -11.8399    2.4756    2.6546 C   0  0  0  0  0  0  0  0  0  0  0  0
  -14.1799    1.8239    2.6784 C   0  0  0  0  0  0  0  0  0  0  0  0
  -12.2140    1.2537   -3.5731 C   0  0  0  0  0  0  0  0  0  0  0  0
  -11.6374    2.1167    4.1365 C   0  0  0  0  0  0  0  0  0  0  0  0
  -14.1412    1.3840    4.1519 C   0  0  0  0  0  0  0  0  0  0  0  0
  -11.2267    1.6274   -4.6104 N   0  0  0  0  0  0  0  0  0  0  0  0
  -12.7411    1.2539    4.6628 N   0  0  0  0  0  0  0  0  0  0  0  0
  -12.5115    0.4918    5.8234 C   0  0  0  0  0  0  0  0  0  0  0  0
  -12.1932    1.0969    7.0030 N   0  0  0  0  0  0  0  0  0  0  0  0
  -12.4696   -0.8699    5.7650 N   0  0  0  0  0  0  0  0  0  0  0  0
  -13.9489   -0.5132    0.0619 C   0  0  0  0  0  0  0  0  0  0  0  0
  -13.5820   -0.7045    1.4220 C   0  0  0  0  0  0  0  0  0  0  0  0
  -14.2370   -1.7013    2.1974 C   0  0  0  0  0  0  0  0  0  0  0  0
  -15.2550   -2.5025    1.6124 C   0  0  0  0  0  0  0  0  0  0  0  0
  -15.6201   -2.3081    0.2544 C   0  0  0  0  0  0  0  0  0  0  0  0
  -14.9663   -1.3144   -0.5207 C   0  0  0  0  0  0  0  0  0  0  0  0
  2  4  1  0  0  0  0
  3  5  1  0  0  0  0
  4  7  1  0  0  0  0
  6  1  1  0  0  0  0
  7 10  1  0  0  0  0
  8  6  1  0  0  0  0
  8 11  1  0  0  0  0
  9  6  1  0  0  0  0
 10 13  1  0  0  0  0
 11 14  1  0  0  0  0
 12  9  1  0  0  0  0
 14 12  1  0  0  0  0
 14 15  1  0  0  0  0
 15 16  1  0  0  0  0
 15 17  1  0  0  0  0
 18  2  1  0  0  0  0
 18 23  2  0  0  0  0
 19  1  1  0  0  0  0
 19 18  1  0  0  0  0
 20 19  2  0  0  0  0
 21  3  1  0  0  0  0
 21 20  1  0  0  0  0
 22 21  2  0  0  0  0
 22 23  1  0  0  0  0
M  END
>  <CHROM.1>
-177.60935643,-84.21534438,177.78795490,-146.92442087,60.78552779,60.55369622
72.28879488,-60.12166646,95.32429967,61.07561688,88.26877437,-13.35418899
0.04611503,1.68729889,-1.74131530,-0.84614491,-1.63440522

>  <Name>
1uui_lig

>  <RI>
0

>  <Rbt.Current_Directory>
/home/itssahil/PROJECTS/Mol_Feturizer/New_Systems/rnas/1uui

>  <Rbt.Executable>
rbdock ($Id: //depot/dev/client3/rdock/2013.1/src/exe/rbdock.cxx#4 $)

>  <Rbt.Library>
libRbt.so (2013.1, Build901 2013/11/27)

>  <Rbt.Parameter_File>
/export/apps/rDock/src/rDock_2013.1_src/data/scripts/dock_solv.prm

>  <Rbt.Receptor>
prm/pocket_docking_4.prm

>  <SCORE>
-26.5507

>  <SCORE.INTER>
-19.6759

>  <SCORE.INTER.CONST>
1

>  <SCORE.INTER.POLAR>
-2.03076

>  <SCORE.INTER.ROT>
10

>  <SCORE.INTER.SOLV>
8.1088

>  <SCORE.INTER.VDW>
-19.3177

>  <SCORE.INTER.norm>
-0.855476

>  <SCORE.INTRA>
-6.89619

>  <SCORE.INTRA.DIHEDRAL>
-4.3098

>  <SCORE.INTRA.DIHEDRAL.0>
23.4151

>  <SCORE.INTRA.POLAR>
-0.31937

>  <SCORE.INTRA.POLAR.0>
0

>  <SCORE.INTRA.REPUL>
0

>  <SCORE.INTRA.REPUL.0>
0

>  <SCORE.INTRA.SOLV>
0.40361

>  <SCORE.INTRA.SOLV.lig_0>
-17.3568

>  <SCORE.INTRA.VDW>
-3.85724

>  <SCORE.INTRA.VDW.0>
1.0768

>  <SCORE.INTRA.norm>
-0.299834

>  <SCORE.RESTR>
0.0214037

>  <SCORE.RESTR.CAVITY>
0.0214037

>  <SCORE.RESTR.norm>
0.000930597

>  <SCORE.SYSTEM>
0

>  <SCORE.SYSTEM.CONST>
0

>  <SCORE.SYSTEM.DIHEDRAL>
0

>  <SCORE.SYSTEM.SOLV>
0

>  <SCORE.SYSTEM.norm>
0

>  <SCORE.heavy>
23

>  <SCORE.norm>
-1.15438

>  <RMSD>
5.391

$$$$
1uui_lig
 OpenBabel11021811413D
libRbt.so/2013.1/901 2013/11/27
 23 24  0  0  0  0  0  0  0  0999 V2000
   -9.5794    1.1988    1.7775 C   0  0  0  0  0  0  0  0  0  0  0  0
  -12.3483    0.8646    2.5981 O   0  0  0  0  0  0  0  0  0  0  0  0
  -11.1611    0.5412   -2.9688 O   0  0  0  0  0  0  0  0  0  0  0  0
  -12.5597   -0.4472    3.1351 C   0  0  0  0  0  0  0  0  0  0  0  0
  -11.2893    1.8376   -3.5578 C   0  0  0  0  0  0  0  0  0  0  0  0
   -8.7957    2.4151    1.3826 N   0  0  0  0  0  0  0  0  0  0  0  0
  -13.1304   -0.3226    4.5486 C   0  0  0  0  0  0  0  0  0  0  0  0
   -7.8828    2.1225    0.2444 C   0  0  0  0  0  0  0  0  0  0  0  0
   -8.0063    2.9341    2.5306 C   0  0  0  0  0  0  0  0  0  0  0  0
  -12.2438    0.5993    5.3919 C   0  0  0  0  0  0  0  0  0  0  0  0
   -6.8548    1.0339    0.5968 C   0  0  0  0  0  0  0  0  0  0  0  0
   -7.0146    1.8833    3.0584 C   0  0  0  0  0  0  0  0  0  0  0  0
  -12.5865    0.4407    6.8230 N   0  0  0  0  0  0  0  0  0  0  0  0
   -6.7822    0.7840    2.0705 N   0  0  0  0  0  0  0  0  0  0  0  0
   -6.2433   -0.4335    2.5262 C   0  0  0  0  0  0  0  0  0  0  0  0
   -5.0047   -0.4785    3.0943 N   0  0  0  0  0  0  0  0  0  0  0  0
   -6.8875   -1.6119    2.2891 N   0  0  0  0  0  0  0  0  0  0  0  0
  -12.0474    0.7800    1.2022 C   0  0  0  0  0  0  0  0  0  0  0  0
  -10.7078    0.9377    0.7530 C   0  0  0  0  0  0  0  0  0  0  0  0
  -10.4141    0.8572   -0.6367 C   0  0  0  0  0  0  0  0  0  0  0  0
  -11.4580    0.6199   -1.5717 C   0  0  0  0  0  0  0  0  0  0  0  0
  -12.7945    0.4616   -1.1200 C   0  0  0  0  0  0  0  0  0  0  0  0
  -13.0889    0.5428    0.2665 C   0  0  0  0  0  0  0  0  0  0  0  0
  2  4  1  0  0  0  0
  3  5  1  0  0  0  0
  4  7  1  0  0  0  0
  6  1  1  0  0  0  0
  7 10  1  0  0  0  0
  8  6  1  0  0  0  0
  8 11  1  0  0  0  0
  9  6  1  0  0  0  0
 10 13  1  0  0  0  0
 11 14  1  0  0  0  0
 12  9  1  0  0  0  0
 14 12  1  0  0  0  0
 14 15  1  0  0  0  0
 15 16  1  0  0  0  0
 15 17  1  0  0  0  0
 18  2  1  0  0  0  0
 18 23  2  0  0  0  0
 19  1  1  0  0  0  0
 19 18  1  0  0  0  0
 20 19  2  0  0  0  0
 21  3  1  0  0  0  0
 21 20  1  0  0  0  0
 22 21  2  0  0  0  0
 22 23  1  0  0  0  0
M  END
>  <CHROM.1>
-169.55988684,-52.42586335,-75.64567368,-165.37603250,65.46647562,106.46957611
-32.75091702,-147.83701090,-103.33171984,-127.37158663,-91.31795570,-9.91520081
0.74990994,1.56818719,-0.49687052,-0.01813310,-1.44503767

>  <Name>
1uui_lig

>  <RI>
0

>  <Rbt.Current_Directory>
/home/itssahil/PROJECTS/Mol_Feturizer/New_Systems/rnas/1uui

>  <Rbt.Executable>
rbdock ($Id: //depot/dev/client3/rdock/2013.1/src/exe/rbdock.cxx#4 $)

>  <Rbt.Library>
libRbt.so (2013.1, Build901 2013/11/27)

>  <Rbt.Parameter_File>
/export/apps/rDock/src/rDock_2013.1_src/data/scripts/dock_solv.prm

>  <Rbt.Receptor>
prm/pocket_docking_4.prm

>  <SCORE>
-21.9445

>  <SCORE.INTER>
-16.0907

>  <SCORE.INTER.CONST>
1

>  <SCORE.INTER.POLAR>
-1.44595

>  <SCORE.INTER.ROT>
10

>  <SCORE.INTER.SOLV>
7.65581

>  <SCORE.INTER.VDW>
-18.7259

>  <SCORE.INTER.norm>
-0.699597

>  <SCORE.INTRA>
-5.8538

>  <SCORE.INTRA.DIHEDRAL>
-7.48261

>  <SCORE.INTRA.DIHEDRAL.0>
23.4151

>  <SCORE.INTRA.POLAR>
0

>  <SCORE.INTRA.POLAR.0>
0

>  <SCORE.INTRA.REPUL>
0

>  <SCORE.INTRA.REPUL.0>
0

>  <SCORE.INTRA.SOLV>
0.00808368

>  <SCORE.INTRA.SOLV.lig_0>
-17.3568

>  <SCORE.INTRA.VDW>
-2.11654

>  <SCORE.INTRA.VDW.0>
1.0768

>  <SCORE.INTRA.norm>
-0.254513

>  <SCORE.RESTR>
0

>  <SCORE.RESTR.CAVITY>
0

>  <SCORE.RESTR.norm>
0

>  <SCORE.SYSTEM>
0

>  <SCORE.SYSTEM.CONST>
0

>  <SCORE.SYSTEM.DIHEDRAL>
0

>  <SCORE.SYSTEM.SOLV>
0

>  <SCORE.SYSTEM.norm>
0

>  <SCORE.heavy>
23

>  <SCORE.norm>
-0.95411

>  <RMSD>
5.397

$$$$
1uui_lig
 OpenBabel11021811413D
libRbt.so/2013.1/901 2013/11/27
 23 24  0  0  0  0  0  0  0  0999 V2000
  -11.6790    0.8881    2.0445 C   0  0  0  0  0  0  0  0  0  0  0  0
  -11.8545   -0.0764   -0.6924 O   0  0  0  0  0  0  0  0  0  0  0  0
   -6.7255   -0.0409    1.7968 O   0  0  0  0  0  0  0  0  0  0  0  0
  -11.7814    0.5747   -1.9670 C   0  0  0  0  0  0  0  0  0  0  0  0
   -6.3782   -1.3684    2.1984 C   0  0  0  0  0  0  0  0  0  0  0  0
  -12.1550   -0.1739    2.9906 N   0  0  0  0  0  0  0  0  0  0  0  0
  -13.1992    0.8061   -2.4920 C   0  0  0  0  0  0  0  0  0  0  0  0
  -12.9940   -1.1839    2.2901 C   0  0  0  0  0  0  0  0  0  0  0  0
  -12.9287    0.4216    4.1119 C   0  0  0  0  0  0  0  0  0  0  0  0
  -13.9398   -0.5300   -2.6064 C   0  0  0  0  0  0  0  0  0  0  0  0
  -14.2523   -0.5548    1.6683 C   0  0  0  0  0  0  0  0  0  0  0  0
  -14.1610    1.1905    3.6053 C   0  0  0  0  0  0  0  0  0  0  0  0
  -15.3163   -0.2914   -3.0951 N   0  0  0  0  0  0  0  0  0  0  0  0
  -14.5168    0.8187    2.2005 N   0  0  0  0  0  0  0  0  0  0  0  0
  -15.3352    1.6885    1.4561 C   0  0  0  0  0  0  0  0  0  0  0  0
  -16.6925    1.6432    1.5775 N   0  0  0  0  0  0  0  0  0  0  0  0
  -14.7998    2.5007    0.5006 N   0  0  0  0  0  0  0  0  0  0  0  0
  -10.5693   -0.0702   -0.0644 C   0  0  0  0  0  0  0  0  0  0  0  0
  -10.4338    0.3932    1.2727 C   0  0  0  0  0  0  0  0  0  0  0  0
   -9.1528    0.4018    1.8915 C   0  0  0  0  0  0  0  0  0  0  0  0
   -8.0130   -0.0520    1.1736 C   0  0  0  0  0  0  0  0  0  0  0  0
   -8.1518   -0.5153   -0.1610 C   0  0  0  0  0  0  0  0  0  0  0  0
   -9.4295   -0.5233   -0.7800 C   0  0  0  0  0  0  0  0  0  0  0  0
  2  4  1  0  0  0  0
  3  5  1  0  0  0  0
  4  7  1  0  0  0  0
  6  1  1  0  0  0  0
  7 10  1  0  0  0  0
  8  6  1  0  0  0  0
  8 11  1  0  0  0  0
  9  6  1  0  0  0  0
 10 13  1  0  0  0  0
 11 14  1  0  0  0  0
 12  9  1  0  0  0  0
 14 12  1  0  0  0  0
 14 15  1  0  0  0  0
 15 16  1  0  0  0  0
 15 17  1  0  0  0  0
 18  2  1  0  0  0  0
 18 23  2  0  0  0  0
 19  1  1  0  0  0  0
 19 18  1  0  0  0  0
 20 19  2  0  0  0  0
 21  3  1  0  0  0  0
 21 20  1  0  0  0  0
 22 21  2  0  0  0  0
 22 23  1  0  0  0  0
M  END
>  <CHROM.1>
-168.78409588,-58.33522132,-81.93680816,179.12839419,56.96730551,84.72320081
-2.91662455,-173.90087112,129.01825902,101.42498281,102.92124969,-12.02412183
0.26927218,0.79820566,0.11462666,-0.19107491,1.47528362

>  <Name>
1uui_lig

>  <RI>
0

>  <Rbt.Current_Directory>
/home/itssahil/PROJECTS/Mol_Feturizer/New_Systems/rnas/1uui

>  <Rbt.Executable>
rbdock ($Id: //depot/dev/client3/rdock/2013.1/src/exe/rbdock.cxx#4 $)

>  <Rbt.Library>
libRbt.so (2013.1, Build901 2013/11/27)

>  <Rbt.Parameter_File>
/export/apps/rDock/src/rDock_2013.1_src/data/scripts/dock_solv.prm

>  <Rbt.Receptor>
prm/pocket_docking_5.prm

>  <SCORE>
-22.5613

>  <SCORE.INTER>
-15.7998

>  <SCORE.INTER.CONST>
1

>  <SCORE.INTER.POLAR>
-1.93423

>  <SCORE.INTER.ROT>
10

>  <SCORE.INTER.SOLV>
4.93602

>  <SCORE.INTER.VDW>
-15.9978

>  <SCORE.INTER.norm>
-0.686948

>  <SCORE.INTRA>
-7.187

>  <SCORE.INTRA.DIHEDRAL>
-9.75378

>  <SCORE.INTRA.DIHEDRAL.0>
23.4151

>  <SCORE.INTRA.POLAR>
0

>  <SCORE.INTRA.POLAR.0>
0

>  <SCORE.INTRA.REPUL>
0.152175

>  <SCORE.INTRA.REPUL.0>
0

>  <SCORE.INTRA.SOLV>
0.524478

>  <SCORE.INTRA.SOLV.lig_0>
-17.3568

>  <SCORE.INTRA.VDW>
-3.33323

>  <SCORE.INTRA.VDW.0>
1.0768

>  <SCORE.INTRA.norm>
-0.312478

>  <SCORE.RESTR>
0.425467

>  <SCORE.RESTR.CAVITY>
0.425467

>  <SCORE.RESTR.norm>
0.0184986

>  <SCORE.SYSTEM>
0

>  <SCORE.SYSTEM.CONST>
0

>  <SCORE.SYSTEM.DIHEDRAL>
0

>  <SCORE.SYSTEM.SOLV>
0

>  <SCORE.SYSTEM.norm>
0

>  <SCORE.heavy>
23

>  <SCORE.norm>
-0.980928

>  <RMSD>
5.400

$$$$
1uui_lig
 OpenBabel11021811413D
libRbt.so/2013.1/901 2013/11/27
 23 24  0  0  0  0  0  0  0  0999 V2000
  -15.0124    0.6308    1.2787 C   0  0  0  0  0  0  0  0  0  0  0  0
  -16.1457   -0.9466   -0.8845 O   0  0  0  0  0  0  0  0  0  0  0  0
  -10.7854    0.9071   -1.4632 O   0  0  0  0  0  0  0  0  0  0  0  0
  -16.1529   -2.3379   -0.5409 C   0  0  0  0  0  0  0  0  0  0  0  0
   -9.9041    0.0689   -0.7117 C   0  0  0  0  0  0  0  0  0  0  0  0
  -15.4469    2.0660    1.2466 N   0  0  0  0  0  0  0  0  0  0  0  0
  -15.5297   -2.5139    0.8447 C   0  0  0  0  0  0  0  0  0  0  0  0
  -14.3564    2.9700    1.7032 C   0  0  0  0  0  0  0  0  0  0  0  0
  -16.6513    2.2754    2.0927 C   0  0  0  0  0  0  0  0  0  0  0  0
  -15.5184   -3.9968    1.2293 C   0  0  0  0  0  0  0  0  0  0  0  0
  -13.9314    2.6728    3.1512 C   0  0  0  0  0  0  0  0  0  0  0  0
  -16.3876    1.8937    3.5593 C   0  0  0  0  0  0  0  0  0  0  0  0
  -16.9091   -4.4722    1.4043 N   0  0  0  0  0  0  0  0  0  0  0  0
  -14.9253    1.8102    3.8639 N   0  0  0  0  0  0  0  0  0  0  0  0
  -14.5105    1.0983    5.0048 C   0  0  0  0  0  0  0  0  0  0  0  0
  -14.8115    1.5494    6.2557 N   0  0  0  0  0  0  0  0  0  0  0  0
  -13.6862    0.0181    4.8896 N   0  0  0  0  0  0  0  0  0  0  0  0
  -14.7996   -0.4836   -1.0258 C   0  0  0  0  0  0  0  0  0  0  0  0
  -14.2028    0.2918    0.0056 C   0  0  0  0  0  0  0  0  0  0  0  0
  -12.8653    0.7538   -0.1414 C   0  0  0  0  0  0  0  0  0  0  0  0
  -12.1295    0.4401   -1.3163 C   0  0  0  0  0  0  0  0  0  0  0  0
  -12.7278   -0.3355   -2.3438 C   0  0  0  0  0  0  0  0  0  0  0  0
  -14.0629   -0.7961   -2.1987 C   0  0  0  0  0  0  0  0  0  0  0  0
  2  4  1  0  0  0  0
  3  5  1  0  0  0  0
  4  7  1  0  0  0  0
  6  1  1  0  0  0  0
  7 10  1  0  0  0  0
  8  6  1  0  0  0  0
  8 11  1  0  0  0  0
  9  6  1  0  0  0  0
 10 13  1  0  0  0  0
 11 14  1  0  0  0  0
 12  9  1  0  0  0  0
 14 12  1  0  0  0  0
 14 15  1  0  0  0  0
 15 16  1  0  0  0  0
 15 17  1  0  0  0  0
 18  2  1  0  0  0  0
 18 23  2  0  0  0  0
 19  1  1  0  0  0  0
 19 18  1  0  0  0  0
 20 19  2  0  0  0  0
 21  3  1  0  0  0  0
 21 20  1  0  0  0  0
 22 21  2  0  0  0  0
 22 23  1  0  0  0  0
M  END
>  <CHROM.1>
65.46639100,-179.62652785,-81.94918336,-66.52799736,-54.93953154,101.21343216
-48.60083782,-114.62320244,-103.25008998,-105.22395731,79.22529969,-14.43611562
0.12264149,1.19822407,1.92201010,0.76936428,0.88380702

>  <Name>
1uui_lig

>  <RI>
0

>  <Rbt.Current_Directory>
/home/itssahil/PROJECTS/Mol_Feturizer/New_Systems/rnas/1uui

>  <Rbt.Executable>
rbdock ($Id: //depot/dev/client3/rdock/2013.1/src/exe/rbdock.cxx#4 $)

>  <Rbt.Library>
libRbt.so (2013.1, Build901 2013/11/27)

>  <Rbt.Parameter_File>
/export/apps/rDock/src/rDock_2013.1_src/data/scripts/dock_solv.prm

>  <Rbt.Receptor>
prm/pocket_docking_5.prm

>  <SCORE>
-19.0964

>  <SCORE.INTER>
-12.8244

>  <SCORE.INTER.CONST>
1

>  <SCORE.INTER.POLAR>
-1.81533

>  <SCORE.INTER.ROT>
10

>  <SCORE.INTER.SOLV>
3.81263

>  <SCORE.INTER.VDW>
-14.036

>  <SCORE.INTER.norm>
-0.557581

>  <SCORE.INTRA>
-6.27201

>  <SCORE.INTRA.DIHEDRAL>
-8.32126

>  <SCORE.INTRA.DIHEDRAL.0>
23.4151

>  <SCORE.INTRA.POLAR>
0

>  <SCORE.INTRA.POLAR.0>
0

>  <SCORE.INTRA.REPUL>
0

>  <SCORE.INTRA.REPUL.0>
0

>  <SCORE.INTRA.SOLV>
0.0342992

>  <SCORE.INTRA.SOLV.lig_0>
-17.3568

>  <SCORE.INTRA.VDW>
-2.12853

>  <SCORE.INTRA.VDW.0>
1.0768

>  <SCORE.INTRA.norm>
-0.272696

>  <SCORE.RESTR>
0

>  <SCORE.RESTR.CAVITY>
0

>  <SCORE.RESTR.norm>
0

>  <SCORE.SYSTEM>
0

>  <SCORE.SYSTEM.CONST>
0

>  <SCORE.SYSTEM.DIHEDRAL>
0

>  <SCORE.SYSTEM.SOLV>
0

>  <SCORE.SYSTEM.norm>
0

>  <SCORE.heavy>
23

>  <SCORE.norm>
-0.830277

>  <RMSD>
5.432

$$$$
1uui_lig
 OpenBabel11021811413D
libRbt.so/2013.1/901 2013/11/27
 23 24  0  0  0  0  0  0  0  0999 V2000
  -13.7235   -1.4340    2.3082 C   0  0  0  0  0  0  0  0  0  0  0  0
  -12.6009    0.4606    0.4104 O   0  0  0  0  0  0  0  0  0  0  0  0
  -12.1318    1.6574    5.9649 O   0  0  0  0  0  0  0  0  0  0  0  0
  -11.4020    0.8401   -0.2770 C   0  0  0  0  0  0  0  0  0  0  0  0
  -13.3984    2.0920    6.4659 C   0  0  0  0  0  0  0  0  0  0  0  0
  -14.6898   -1.1268    1.2031 N   0  0  0  0  0  0  0  0  0  0  0  0
  -11.6703    0.8475   -1.7827 C   0  0  0  0  0  0  0  0  0  0  0  0
  -15.7116   -0.1368    1.6396 C   0  0  0  0  0  0  0  0  0  0  0  0
  -15.3674   -2.3631    0.7309 C   0  0  0  0  0  0  0  0  0  0  0  0
  -10.5614    1.6161   -2.5084 C   0  0  0  0  0  0  0  0  0  0  0  0
  -16.5479   -0.6565    2.8214 C   0  0  0  0  0  0  0  0  0  0  0  0
  -16.1480   -3.0503    1.8642 C   0  0  0  0  0  0  0  0  0  0  0  0
  -10.9554    1.8385   -3.9176 N   0  0  0  0  0  0  0  0  0  0  0  0
  -16.3861   -2.1309    3.0202 N   0  0  0  0  0  0  0  0  0  0  0  0
  -16.7121   -2.6863    4.2715 C   0  0  0  0  0  0  0  0  0  0  0  0
  -16.8518   -1.8927    5.3714 N   0  0  0  0  0  0  0  0  0  0  0  0
  -16.7631   -4.0384    4.4410 N   0  0  0  0  0  0  0  0  0  0  0  0
  -12.4810    0.7569    1.8047 C   0  0  0  0  0  0  0  0  0  0  0  0
  -13.0152   -0.1395    2.7703 C   0  0  0  0  0  0  0  0  0  0  0  0
  -12.8975    0.1616    4.1557 C   0  0  0  0  0  0  0  0  0  0  0  0
  -12.2476    1.3554    4.5715 C   0  0  0  0  0  0  0  0  0  0  0  0
  -11.7140    2.2478    3.6049 C   0  0  0  0  0  0  0  0  0  0  0  0
  -11.8318    1.9489    2.2220 C   0  0  0  0  0  0  0  0  0  0  0  0
  2  4  1  0  0  0  0
  3  5  1  0  0  0  0
  4  7  1  0  0  0  0
  6  1  1  0  0  0  0
  7 10  1  0  0  0  0
  8  6  1  0  0  0  0
  8 11  1  0  0  0  0
  9  6  1  0  0  0  0
 10 13  1  0  0  0  0
 11 14  1  0  0  0  0
 12  9  1  0  0  0  0
 14 12  1  0  0  0  0
 14 15  1  0  0  0  0
 15 16  1  0  0  0  0
 15 17  1  0  0  0  0
 18  2  1  0  0  0  0
 18 23  2  0  0  0  0
 19  1  1  0  0  0  0
 19 18  1  0  0  0  0
 20 19  2  0  0  0  0
 21  3  1  0  0  0  0
 21 20  1  0  0  0  0
 22 21  2  0  0  0  0
 22 23  1  0  0  0  0
M  END
>  <CHROM.1>
-165.94713654,164.02318802,-58.69576003,-169.37708560,176.10771451,-16.03172744
148.63749476,-41.11384107,-141.38948978,-46.74490128,-74.81186204,-13.75464898
-0.18549798,2.18745127,2.49459250,0.75528208,1.36363301

>  <Name>
1uui_lig

>  <RI>
0

>  <Rbt.Current_Directory>
/home/itssahil/PROJECTS/Mol_Feturizer/New_Systems/rnas/1uui

>  <Rbt.Executable>
rbdock ($Id: //depot/dev/client3/rdock/2013.1/src/exe/rbdock.cxx#4 $)

>  <Rbt.Library>
libRbt.so (2013.1, Build901 2013/11/27)

>  <Rbt.Parameter_File>
/export/apps/rDock/src/rDock_2013.1_src/data/scripts/dock_solv.prm

>  <Rbt.Receptor>
prm/pocket_docking_5.prm

>  <SCORE>
-20.6083

>  <SCORE.INTER>
-13.3505

>  <SCORE.INTER.CONST>
1

>  <SCORE.INTER.POLAR>
-2.02591

>  <SCORE.INTER.ROT>
10

>  <SCORE.INTER.SOLV>
5.5305

>  <SCORE.INTER.VDW>
-14.2575

>  <SCORE.INTER.norm>
-0.580456

>  <SCORE.INTRA>
-7.25777

>  <SCORE.INTRA.DIHEDRAL>
-10.4011

>  <SCORE.INTRA.DIHEDRAL.0>
23.4151

>  <SCORE.INTRA.POLAR>
-0.596528

>  <SCORE.INTRA.POLAR.0>
0

>  <SCORE.INTRA.REPUL>
0

>  <SCORE.INTRA.REPUL.0>
0

>  <SCORE.INTRA.SOLV>
0.324584

>  <SCORE.INTRA.SOLV.lig_0>
-17.3568

>  <SCORE.INTRA.VDW>
-0.191313

>  <SCORE.INTRA.VDW.0>
1.0768

>  <SCORE.INTRA.norm>
-0.315555

>  <SCORE.RESTR>
0

>  <SCORE.RESTR.CAVITY>
0

>  <SCORE.RESTR.norm>
0

>  <SCORE.SYSTEM>
0

>  <SCORE.SYSTEM.CONST>
0

>  <SCORE.SYSTEM.DIHEDRAL>
0

>  <SCORE.SYSTEM.SOLV>
0

>  <SCORE.SYSTEM.norm>
0

>  <SCORE.heavy>
23

>  <SCORE.norm>
-0.896011

>  <RMSD>
5.463

$$$$
1uui_lig
 OpenBabel11021811413D
libRbt.so/2013.1/901 2013/11/27
 23 24  0  0  0  0  0  0  0  0999 V2000
  -13.5960    0.5502    1.1474 C   0  0  0  0  0  0  0  0  0  0  0  0
  -15.0168   -1.7747    0.1337 O   0  0  0  0  0  0  0  0  0  0  0  0
  -12.7948    1.8539   -3.6609 O   0  0  0  0  0  0  0  0  0  0  0  0
  -16.2419   -1.2451    0.6558 C   0  0  0  0  0  0  0  0  0  0  0  0
  -11.3910    1.6150   -3.7881 C   0  0  0  0  0  0  0  0  0  0  0  0
  -12.5763   -0.3822    1.7307 N   0  0  0  0  0  0  0  0  0  0  0  0
  -16.8873   -2.2872    1.5706 C   0  0  0  0  0  0  0  0  0  0  0  0
  -13.2265   -1.5084    2.4544 C   0  0  0  0  0  0  0  0  0  0  0  0
  -11.6634    0.3402    2.6554 C   0  0  0  0  0  0  0  0  0  0  0  0
  -18.1089   -1.6841    2.2713 C   0  0  0  0  0  0  0  0  0  0  0  0
  -14.0913   -1.0154    3.6270 C   0  0  0  0  0  0  0  0  0  0  0  0
  -12.4319    0.9886    3.8196 C   0  0  0  0  0  0  0  0  0  0  0  0
  -17.6648   -0.6654    3.2488 N   0  0  0  0  0  0  0  0  0  0  0  0
  -13.8024    0.4101    3.9794 N   0  0  0  0  0  0  0  0  0  0  0  0
  -14.7650    1.1383    4.7030 C   0  0  0  0  0  0  0  0  0  0  0  0
  -14.9590    2.4665    4.4640 N   0  0  0  0  0  0  0  0  0  0  0  0
  -15.4287    0.5672    5.7484 N   0  0  0  0  0  0  0  0  0  0  0  0
  -14.4552   -0.8649   -0.8165 C   0  0  0  0  0  0  0  0  0  0  0  0
  -13.7521    0.2866   -0.3683 C   0  0  0  0  0  0  0  0  0  0  0  0
  -13.1991    1.1910   -1.3171 C   0  0  0  0  0  0  0  0  0  0  0  0
  -13.3499    0.9425   -2.7084 C   0  0  0  0  0  0  0  0  0  0  0  0
  -14.0514   -0.2089   -3.1528 C   0  0  0  0  0  0  0  0  0  0  0  0
  -14.6047   -1.1116   -2.2069 C   0  0  0  0  0  0  0  0  0  0  0  0
  2  4  1  0  0  0  0
  3  5  1  0  0  0  0
  4  7  1  0  0  0  0
  6  1  1  0  0  0  0
  7 10  1  0  0  0  0
  8  6  1  0  0  0  0
  8 11  1  0  0  0  0
  9  6  1  0  0  0  0
 10 13  1  0  0  0  0
 11 14  1  0  0  0  0
 12  9  1  0  0  0  0
 14 12  1  0  0  0  0
 14 15  1  0  0  0  0
 15 16  1  0  0  0  0
 15 17  1  0  0  0  0
 18  2  1  0  0  0  0
 18 23  2  0  0  0  0
 19  1  1  0  0  0  0
 19 18  1  0  0  0  0
 20 19  2  0  0  0  0
 21  3  1  0  0  0  0
 21 20  1  0  0  0  0
 22 21  2  0  0  0  0
 22 23  1  0  0  0  0
M  END
>  <CHROM.1>
174.91001618,173.26053932,-101.80025490,-69.20268125,-52.64830982,-144.46323680
96.30020039,-88.11351178,78.46477443,74.65890063,79.08904650,-14.29613755
-0.00311548,1.13880572,-1.20123772,0.56548465,1.45219193

>  <Name>
1uui_lig

>  <RI>
0

>  <Rbt.Current_Directory>
/home/itssahil/PROJECTS/Mol_Feturizer/New_Systems/rnas/1uui

>  <Rbt.Executable>
rbdock ($Id: //depot/dev/client3/rdock/2013.1/src/exe/rbdock.cxx#4 $)

>  <Rbt.Library>
libRbt.so (2013.1, Build901 2013/11/27)

>  <Rbt.Parameter_File>
/export/apps/rDock/src/rDock_2013.1_src/data/scripts/dock_solv.prm

>  <Rbt.Receptor>
prm/pocket_docking_5.prm

>  <SCORE>
-16.384

>  <SCORE.INTER>
-9.66077

>  <SCORE.INTER.CONST>
1

>  <SCORE.INTER.POLAR>
-1.60581

>  <SCORE.INTER.ROT>
10

>  <SCORE.INTER.SOLV>
3.66835

>  <SCORE.INTER.VDW>
-12.5773

>  <SCORE.INTER.norm>
-0.420033

>  <SCORE.INTRA>
-6.72319

>  <SCORE.INTRA.DIHEDRAL>
-6.10628

>  <SCORE.INTRA.DIHEDRAL.0>
23.4151

>  <SCORE.INTRA.POLAR>
0

>  <SCORE.INTRA.POLAR.0>
0

>  <SCORE.INTRA.REPUL>
0

>  <SCORE.INTRA.REPUL.0>
0

>  <SCORE.INTRA.SOLV>
1.20532

>  <SCORE.INTRA.SOLV.lig_0>
-17.3568

>  <SCORE.INTRA.VDW>
-4.2727

>  <SCORE.INTRA.VDW.0>
1.0768

>  <SCORE.INTRA.norm>
-0.292313

>  <SCORE.RESTR>
0

>  <SCORE.RESTR.CAVITY>
0

>  <SCORE.RESTR.norm>
0

>  <SCORE.SYSTEM>
0

>  <SCORE.SYSTEM.CONST>
0

>  <SCORE.SYSTEM.DIHEDRAL>
0

>  <SCORE.SYSTEM.SOLV>
0

>  <SCORE.SYSTEM.norm>
0

>  <SCORE.heavy>
23

>  <SCORE.norm>
-0.712346

>  <RMSD>
5.498

$$$$
1uui_lig
 OpenBabel11021811413D
libRbt.so/2013.1/901 2013/11/27
 23 24  0  0  0  0  0  0  0  0999 V2000
   -8.4327    1.7502   -0.4874 C   0  0  0  0  0  0  0  0  0  0  0  0
   -8.6847    1.1021   -3.3102 O   0  0  0  0  0  0  0  0  0  0  0  0
  -12.8702    4.1193   -0.8848 O   0  0  0  0  0  0  0  0  0  0  0  0
   -7.8883    1.9481   -4.1492 C   0  0  0  0  0  0  0  0  0  0  0  0
  -12.8900    5.4391   -1.4342 C   0  0  0  0  0  0  0  0  0  0  0  0
   -8.6827    2.0024    0.9698 N   0  0  0  0  0  0  0  0  0  0  0  0
   -6.9361    1.0806   -4.9738 C   0  0  0  0  0  0  0  0  0  0  0  0
   -7.4245    1.9020    1.7582 C   0  0  0  0  0  0  0  0  0  0  0  0
   -9.6842    1.0457    1.5103 C   0  0  0  0  0  0  0  0  0  0  0  0
   -5.9233    0.3933   -4.0525 C   0  0  0  0  0  0  0  0  0  0  0  0
   -6.7928    0.5032    1.6575 C   0  0  0  0  0  0  0  0  0  0  0  0
   -9.2173   -0.4118    1.3560 C   0  0  0  0  0  0  0  0  0  0  0  0
   -5.0422   -0.4845   -4.8548 N   0  0  0  0  0  0  0  0  0  0  0  0
   -7.7464   -0.5064    1.0997 N   0  0  0  0  0  0  0  0  0  0  0  0
   -7.2305   -1.6917    0.5435 C   0  0  0  0  0  0  0  0  0  0  0  0
   -6.9911   -2.7824    1.3258 N   0  0  0  0  0  0  0  0  0  0  0  0
   -6.8330   -1.7333   -0.7603 N   0  0  0  0  0  0  0  0  0  0  0  0
   -9.7318    1.8624   -2.7004 C   0  0  0  0  0  0  0  0  0  0  0  0
   -9.6531    2.2028   -1.3223 C   0  0  0  0  0  0  0  0  0  0  0  0
  -10.6990    2.9552   -0.7192 C   0  0  0  0  0  0  0  0  0  0  0  0
  -11.8186    3.3645   -1.4934 C   0  0  0  0  0  0  0  0  0  0  0  0
  -11.8937    3.0241   -2.8696 C   0  0  0  0  0  0  0  0  0  0  0  0
  -10.8510    2.2723   -3.4723 C   0  0  0  0  0  0  0  0  0  0  0  0
  2  4  1  0  0  0  0
  3  5  1  0  0  0  0
  4  7  1  0  0  0  0
  6  1  1  0  0  0  0
  7 10  1  0  0  0  0
  8  6  1  0  0  0  0
  8 11  1  0  0  0  0
  9  6  1  0  0  0  0
 10 13  1  0  0  0  0
 11 14  1  0  0  0  0
 12  9  1  0  0  0  0
 14 12  1  0  0  0  0
 14 15  1  0  0  0  0
 15 16  1  0  0  0  0
 15 17  1  0  0  0  0
 18  2  1  0  0  0  0
 18 23  2  0  0  0  0
 19  1  1  0  0  0  0
 19 18  1  0  0  0  0
 20 19  2  0  0  0  0
 21  3  1  0  0  0  0
 21 20  1  0  0  0  0
 22 21  2  0  0  0  0
 22 23  1  0  0  0  0
M  END
>  <CHROM.1>
-170.23792220,-66.00005196,-165.78470725,177.76458661,163.35029553,87.52748816
-19.67603312,64.96799026,-105.98718316,-169.78058834,113.01711865,-8.79499333
1.21996411,-1.19154173,0.30624694,-0.69104162,1.84052909

>  <Name>
1uui_lig

>  <RI>
0

>  <Rbt.Current_Directory>
/home/itssahil/PROJECTS/Mol_Feturizer/New_Systems/rnas/1uui

>  <Rbt.Executable>
rbdock ($Id: //depot/dev/client3/rdock/2013.1/src/exe/rbdock.cxx#4 $)

>  <Rbt.Library>
libRbt.so (2013.1, Build901 2013/11/27)

>  <Rbt.Parameter_File>
/export/apps/rDock/src/rDock_2013.1_src/data/scripts/dock_solv.prm

>  <Rbt.Receptor>
prm/pocket_docking_6.prm

>  <SCORE>
-39.0783

>  <SCORE.INTER>
-33.3087

>  <SCORE.INTER.CONST>
1

>  <SCORE.INTER.POLAR>
-5.73333

>  <SCORE.INTER.ROT>
10

>  <SCORE.INTER.SOLV>
7.04569

>  <SCORE.INTER.VDW>
-15.7099

>  <SCORE.INTER.norm>
-1.4482

>  <SCORE.INTRA>
-6.02441

>  <SCORE.INTRA.DIHEDRAL>
-8.81244

>  <SCORE.INTRA.DIHEDRAL.0>
23.4151

>  <SCORE.INTRA.POLAR>
0

>  <SCORE.INTRA.POLAR.0>
0

>  <SCORE.INTRA.REPUL>
0

>  <SCORE.INTRA.REPUL.0>
0

>  <SCORE.INTRA.SOLV>
0.0942767

>  <SCORE.INTRA.SOLV.lig_0>
-17.3568

>  <SCORE.INTRA.VDW>
-1.66533

>  <SCORE.INTRA.VDW.0>
1.0768

>  <SCORE.INTRA.norm>
-0.261931

>  <SCORE.RESTR>
0.254759

>  <SCORE.RESTR.CAVITY>
0.254759

>  <SCORE.RESTR.norm>
0.0110765

>  <SCORE.SYSTEM>
0

>  <SCORE.SYSTEM.CONST>
0

>  <SCORE.SYSTEM.DIHEDRAL>
0

>  <SCORE.SYSTEM.SOLV>
0

>  <SCORE.SYSTEM.norm>
0

>  <SCORE.heavy>
23

>  <SCORE.norm>
-1.69906

>  <RMSD>
5.512

$$$$
1uui_lig
 OpenBabel11021811413D
libRbt.so/2013.1/901 2013/11/27
 23 24  0  0  0  0  0  0  0  0999 V2000
   -8.8186    1.5555    0.8418 C   0  0  0  0  0  0  0  0  0  0  0  0
   -6.8452    0.2373   -0.8373 O   0  0  0  0  0  0  0  0  0  0  0  0
   -5.0298    2.7118    3.9674 O   0  0  0  0  0  0  0  0  0  0  0  0
   -6.2885    0.9120   -1.9726 C   0  0  0  0  0  0  0  0  0  0  0  0
   -4.8894    4.1184    3.7536 C   0  0  0  0  0  0  0  0  0  0  0  0
   -9.3373    2.9590    0.9445 N   0  0  0  0  0  0  0  0  0  0  0  0
   -6.6299    0.1248   -3.2387 C   0  0  0  0  0  0  0  0  0  0  0  0
   -9.6423    3.3195    2.3558 C   0  0  0  0  0  0  0  0  0  0  0  0
  -10.5567    3.1368    0.1127 C   0  0  0  0  0  0  0  0  0  0  0  0
   -5.8659    0.7006   -4.4353 C   0  0  0  0  0  0  0  0  0  0  0  0
  -10.7225    2.4074    2.9617 C   0  0  0  0  0  0  0  0  0  0  0  0
  -11.6832    2.1835    0.5465 C   0  0  0  0  0  0  0  0  0  0  0  0
   -6.1776   -0.0900   -5.6470 N   0  0  0  0  0  0  0  0  0  0  0  0
  -11.4505    1.6244    1.9145 N   0  0  0  0  0  0  0  0  0  0  0  0
  -12.1406    0.4589    2.2966 C   0  0  0  0  0  0  0  0  0  0  0  0
  -12.3534    0.1746    3.6129 N   0  0  0  0  0  0  0  0  0  0  0  0
  -12.4931   -0.4768    1.3693 N   0  0  0  0  0  0  0  0  0  0  0  0
   -6.3926    0.8555    0.3707 C   0  0  0  0  0  0  0  0  0  0  0  0
   -7.3208    1.5129    1.2236 C   0  0  0  0  0  0  0  0  0  0  0  0
   -6.8653    2.1302    2.4217 C   0  0  0  0  0  0  0  0  0  0  0  0
   -5.4862    2.0889    2.7633 C   0  0  0  0  0  0  0  0  0  0  0  0
   -4.5620    1.4306    1.9102 C   0  0  0  0  0  0  0  0  0  0  0  0
   -5.0153    0.8151    0.7137 C   0  0  0  0  0  0  0  0  0  0  0  0
  2  4  1  0  0  0  0
  3  5  1  0  0  0  0
  4  7  1  0  0  0  0
  6  1  1  0  0  0  0
  7 10  1  0  0  0  0
  8  6  1  0  0  0  0
  8 11  1  0  0  0  0
  9  6  1  0  0  0  0
 10 13  1  0  0  0  0
 11 14  1  0  0  0  0
 12  9  1  0  0  0  0
 14 12  1  0  0  0  0
 14 15  1  0  0  0  0
 15 16  1  0  0  0  0
 15 17  1  0  0  0  0
 18  2  1  0  0  0  0
 18 23  2  0  0  0  0
 19  1  1  0  0  0  0
 19 18  1  0  0  0  0
 20 19  2  0  0  0  0
 21  3  1  0  0  0  0
 21 20  1  0  0  0  0
 22 21  2  0  0  0  0
 22 23  1  0  0  0  0
M  END
>  <CHROM.1>
172.43007869,-171.16942817,-79.89086765,178.57857814,80.88701671,11.84992246
-87.64546787,-112.93860358,114.69106823,-130.45357159,-80.41802450,-8.15727367
1.49556536,0.73283747,2.39999957,0.14141314,1.24814489

>  <Name>
1uui_lig

>  <RI>
0

>  <Rbt.Current_Directory>
/home/itssahil/PROJECTS/Mol_Feturizer/New_Systems/rnas/1uui

>  <Rbt.Executable>
rbdock ($Id: //depot/dev/client3/rdock/2013.1/src/exe/rbdock.cxx#4 $)

>  <Rbt.Library>
libRbt.so (2013.1, Build901 2013/11/27)

>  <Rbt.Parameter_File>
/export/apps/rDock/src/rDock_2013.1_src/data/scripts/dock_solv.prm

>  <Rbt.Receptor>
prm/pocket_docking_8.prm

>  <SCORE>
-24.3711

>  <SCORE.INTER>
-18.929

>  <SCORE.INTER.CONST>
1

>  <SCORE.INTER.POLAR>
-4.54016

>  <SCORE.INTER.ROT>
10

>  <SCORE.INTER.SOLV>
4.91073

>  <SCORE.INTER.VDW>
-9.38901

>  <SCORE.INTER.norm>
-0.822998

>  <SCORE.INTRA>
-5.44212

>  <SCORE.INTRA.DIHEDRAL>
-8.03486

>  <SCORE.INTRA.DIHEDRAL.0>
23.4151

>  <SCORE.INTRA.POLAR>
0

>  <SCORE.INTRA.POLAR.0>
0

>  <SCORE.INTRA.REPUL>
0

>  <SCORE.INTRA.REPUL.0>
0

>  <SCORE.INTRA.SOLV>
-0.0955598

>  <SCORE.INTRA.SOLV.lig_0>
-17.3568

>  <SCORE.INTRA.VDW>
-1.37691

>  <SCORE.INTRA.VDW.0>
1.0768

>  <SCORE.INTRA.norm>
-0.236614

>  <SCORE.RESTR>
0

>  <SCORE.RESTR.CAVITY>
0

>  <SCORE.RESTR.norm>
0

>  <SCORE.SYSTEM>
0

>  <SCORE.SYSTEM.CONST>
0

>  <SCORE.SYSTEM.DIHEDRAL>
0

>  <SCORE.SYSTEM.SOLV>
0

>  <SCORE.SYSTEM.norm>
0

>  <SCORE.heavy>
23

>  <SCORE.norm>
-1.05961

>  <RMSD>
5.521

$$$$
1uui_lig
 OpenBabel11021811413D
libRbt.so/2013.1/901 2013/11/27
 23 24  0  0  0  0  0  0  0  0999 V2000
   -9.6352   -0.0352    1.5209 C   0  0  0  0  0  0  0  0  0  0  0  0
  -12.1046   -0.3076    3.0307 O   0  0  0  0  0  0  0  0  0  0  0  0
  -12.4929    0.3175   -2.6228 O   0  0  0  0  0  0  0  0  0  0  0  0
  -12.7086    0.8142    3.6870 C   0  0  0  0  0  0  0  0  0  0  0  0
  -12.5736    1.7087   -2.9424 C   0  0  0  0  0  0  0  0  0  0  0  0
   -8.6348   -0.7371    0.6514 N   0  0  0  0  0  0  0  0  0  0  0  0
  -12.5999    0.6255    5.2009 C   0  0  0  0  0  0  0  0  0  0  0  0
   -7.5995   -1.4265    1.4686 C   0  0  0  0  0  0  0  0  0  0  0  0
   -7.9771    0.2180   -0.2790 C   0  0  0  0  0  0  0  0  0  0  0  0
  -13.4551   -0.5663    5.6428 C   0  0  0  0  0  0  0  0  0  0  0  0
   -6.8057   -0.4403    2.3422 C   0  0  0  0  0  0  0  0  0  0  0  0
   -7.2418    1.3351    0.4809 C   0  0  0  0  0  0  0  0  0  0  0  0
  -14.8796   -0.1662    5.6775 N   0  0  0  0  0  0  0  0  0  0  0  0
   -7.0090    0.9796    1.9154 N   0  0  0  0  0  0  0  0  0  0  0  0
   -6.7277    2.0100    2.8317 C   0  0  0  0  0  0  0  0  0  0  0  0
   -7.6435    2.9882    3.0835 N   0  0  0  0  0  0  0  0  0  0  0  0
   -5.4873    2.1297    3.3854 N   0  0  0  0  0  0  0  0  0  0  0  0
  -12.1994   -0.1545    1.6116 C   0  0  0  0  0  0  0  0  0  0  0  0
  -11.0190   -0.0170    0.8312 C   0  0  0  0  0  0  0  0  0  0  0  0
  -11.1185    0.1395   -0.5793 C   0  0  0  0  0  0  0  0  0  0  0  0
  -12.3948    0.1582   -1.2047 C   0  0  0  0  0  0  0  0  0  0  0  0
  -13.5715    0.0194   -0.4228 C   0  0  0  0  0  0  0  0  0  0  0  0
  -13.4735   -0.1358    0.9850 C   0  0  0  0  0  0  0  0  0  0  0  0
  2  4  1  0  0  0  0
  3  5  1  0  0  0  0
  4  7  1  0  0  0  0
  6  1  1  0  0  0  0
  7 10  1  0  0  0  0
  8  6  1  0  0  0  0
  8 11  1  0  0  0  0
  9  6  1  0  0  0  0
 10 13  1  0  0  0  0
 11 14  1  0  0  0  0
 12  9  1  0  0  0  0
 14 12  1  0  0  0  0
 14 15  1  0  0  0  0
 15 16  1  0  0  0  0
 15 17  1  0  0  0  0
 18  2  1  0  0  0  0
 18 23  2  0  0  0  0
 19  1  1  0  0  0  0
 19 18  1  0  0  0  0
 20 19  2  0  0  0  0
 21  3  1  0  0  0  0
 21 20  1  0  0  0  0
 22 21  2  0  0  0  0
 22 23  1  0  0  0  0
M  END
>  <CHROM.1>
179.78490466,-66.56475403,-148.76082517,-77.44170830,29.52896255,-128.90184865
48.78148507,-5.35861942,115.81768055,143.60248473,-89.65285084,-10.39185499
0.43535082,1.63532691,0.04425803,-0.15151122,-1.58093486

>  <Name>
1uui_lig

>  <RI>
0

>  <Rbt.Current_Directory>
/home/itssahil/PROJECTS/Mol_Feturizer/New_Systems/rnas/1uui

>  <Rbt.Executable>
rbdock ($Id: //depot/dev/client3/rdock/2013.1/src/exe/rbdock.cxx#4 $)

>  <Rbt.Library>
libRbt.so (2013.1, Build901 2013/11/27)

>  <Rbt.Parameter_File>
/export/apps/rDock/src/rDock_2013.1_src/data/scripts/dock_solv.prm

>  <Rbt.Receptor>
prm/pocket_docking_4.prm

>  <SCORE>
-18.4829

>  <SCORE.INTER>
-14.0307

>  <SCORE.INTER.CONST>
1

>  <SCORE.INTER.POLAR>
-1.00551

>  <SCORE.INTER.ROT>
10

>  <SCORE.INTER.SOLV>
6.83252

>  <SCORE.INTER.VDW>
-18.5463

>  <SCORE.INTER.norm>
-0.610031

>  <SCORE.INTRA>
-4.45218

>  <SCORE.INTRA.DIHEDRAL>
-5.49427

>  <SCORE.INTRA.DIHEDRAL.0>
23.4151

>  <SCORE.INTRA.POLAR>
0

>  <SCORE.INTRA.POLAR.0>
0

>  <SCORE.INTRA.REPUL>
0

>  <SCORE.INTRA.REPUL.0>
0

>  <SCORE.INTRA.SOLV>
0.139757

>  <SCORE.INTRA.SOLV.lig_0>
-17.3568

>  <SCORE.INTRA.VDW>
-1.77493

>  <SCORE.INTRA.VDW.0>
1.0768

>  <SCORE.INTRA.norm>
-0.193573

>  <SCORE.RESTR>
0

>  <SCORE.RESTR.CAVITY>
0

>  <SCORE.RESTR.norm>
0

>  <SCORE.SYSTEM>
0

>  <SCORE.SYSTEM.CONST>
0

>  <SCORE.SYSTEM.DIHEDRAL>
0

>  <SCORE.SYSTEM.SOLV>
0

>  <SCORE.SYSTEM.norm>
0

>  <SCORE.heavy>
23

>  <SCORE.norm>
-0.803604

>  <RMSD>
5.534

$$$$
1uui_lig
 OpenBabel11021811413D
libRbt.so/2013.1/901 2013/11/27
 23 24  0  0  0  0  0  0  0  0999 V2000
  -10.4779    2.5271    0.1876 C   0  0  0  0  0  0  0  0  0  0  0  0
   -8.7170    1.6158    2.3137 O   0  0  0  0  0  0  0  0  0  0  0  0
   -8.6087    7.1512    0.9530 O   0  0  0  0  0  0  0  0  0  0  0  0
   -7.9350    0.8672    1.3746 C   0  0  0  0  0  0  0  0  0  0  0  0
   -9.3774    7.8936    1.9027 C   0  0  0  0  0  0  0  0  0  0  0  0
  -11.8592    2.5944    0.7681 N   0  0  0  0  0  0  0  0  0  0  0  0
   -7.7253   -0.5482    1.9147 C   0  0  0  0  0  0  0  0  0  0  0  0
  -12.6693    1.4108    0.3715 C   0  0  0  0  0  0  0  0  0  0  0  0
  -12.5549    3.8370    0.3410 C   0  0  0  0  0  0  0  0  0  0  0  0
   -7.2181   -1.4653    0.7973 C   0  0  0  0  0  0  0  0  0  0  0  0
  -12.8391    1.3152   -1.1543 C   0  0  0  0  0  0  0  0  0  0  0  0
  -12.6808    3.9191   -1.1899 C   0  0  0  0  0  0  0  0  0  0  0  0
   -6.4943   -2.6122    1.3900 N   0  0  0  0  0  0  0  0  0  0  0  0
  -12.4663    2.5904   -1.8432 N   0  0  0  0  0  0  0  0  0  0  0  0
  -12.1474    2.5528   -3.2134 C   0  0  0  0  0  0  0  0  0  0  0  0
  -13.0794    2.8740   -4.1552 N   0  0  0  0  0  0  0  0  0  0  0  0
  -10.9451    2.0666   -3.6351 N   0  0  0  0  0  0  0  0  0  0  0  0
   -8.6944    3.0049    1.9732 C   0  0  0  0  0  0  0  0  0  0  0  0
   -9.5373    3.4972    0.9396 C   0  0  0  0  0  0  0  0  0  0  0  0
   -9.5080    4.8787    0.6014 C   0  0  0  0  0  0  0  0  0  0  0  0
   -8.6381    5.7628    1.2957 C   0  0  0  0  0  0  0  0  0  0  0  0
   -7.7985    5.2684    2.3282 C   0  0  0  0  0  0  0  0  0  0  0  0
   -7.8261    3.8897    2.6659 C   0  0  0  0  0  0  0  0  0  0  0  0
  2  4  1  0  0  0  0
  3  5  1  0  0  0  0
  4  7  1  0  0  0  0
  6  1  1  0  0  0  0
  7 10  1  0  0  0  0
  8  6  1  0  0  0  0
  8 11  1  0  0  0  0
  9  6  1  0  0  0  0
 10 13  1  0  0  0  0
 11 14  1  0  0  0  0
 12  9  1  0  0  0  0
 14 12  1  0  0  0  0
 14 15  1  0  0  0  0
 15 16  1  0  0  0  0
 15 17  1  0  0  0  0
 18  2  1  0  0  0  0
 18 23  2  0  0  0  0
 19  1  1  0  0  0  0
 19 18  1  0  0  0  0
 20 19  2  0  0  0  0
 21  3  1  0  0  0  0
 21 20  1  0  0  0  0
 22 21  2  0  0  0  0
 22 23  1  0  0  0  0
M  END
>  <CHROM.1>
168.05466547,165.43549075,-162.58595154,156.36368111,-94.08688405,97.78937568
-80.71995847,59.55331068,79.85391271,97.71078690,100.70375602,-9.99639755
2.75801811,0.25971610,2.80438383,-0.72616285,0.22010855

>  <Name>
1uui_lig

>  <RI>
0

>  <Rbt.Current_Directory>
/home/itssahil/PROJECTS/Mol_Feturizer/New_Systems/rnas/1uui

>  <Rbt.Executable>
rbdock ($Id: //depot/dev/client3/rdock/2013.1/src/exe/rbdock.cxx#4 $)

>  <Rbt.Library>
libRbt.so (2013.1, Build901 2013/11/27)

>  <Rbt.Parameter_File>
/export/apps/rDock/src/rDock_2013.1_src/data/scripts/dock_solv.prm

>  <Rbt.Receptor>
prm/pocket_docking_8.prm

>  <SCORE>
-23.9447

>  <SCORE.INTER>
-19.2603

>  <SCORE.INTER.CONST>
1

>  <SCORE.INTER.POLAR>
-3.94571

>  <SCORE.INTER.ROT>
10

>  <SCORE.INTER.SOLV>
5.50563

>  <SCORE.INTER.VDW>
-11.7897

>  <SCORE.INTER.norm>
-0.837404

>  <SCORE.INTRA>
-4.68445

>  <SCORE.INTRA.DIHEDRAL>
-3.62081

>  <SCORE.INTRA.DIHEDRAL.0>
23.4151

>  <SCORE.INTRA.POLAR>
0

>  <SCORE.INTRA.POLAR.0>
0

>  <SCORE.INTRA.REPUL>
0

>  <SCORE.INTRA.REPUL.0>
0

>  <SCORE.INTRA.SOLV>
-0.0195033

>  <SCORE.INTRA.SOLV.lig_0>
-17.3568

>  <SCORE.INTRA.VDW>
-2.86429

>  <SCORE.INTRA.VDW.0>
1.0768

>  <SCORE.INTRA.norm>
-0.203672

>  <SCORE.RESTR>
0

>  <SCORE.RESTR.CAVITY>
0

>  <SCORE.RESTR.norm>
0

>  <SCORE.SYSTEM>
0

>  <SCORE.SYSTEM.CONST>
0

>  <SCORE.SYSTEM.DIHEDRAL>
0

>  <SCORE.SYSTEM.SOLV>
0

>  <SCORE.SYSTEM.norm>
0

>  <SCORE.heavy>
23

>  <SCORE.norm>
-1.04108

>  <RMSD>
5.537

$$$$
1uui_lig
 OpenBabel11021811413D
libRbt.so/2013.1/901 2013/11/27
 23 24  0  0  0  0  0  0  0  0999 V2000
  -12.8155    0.6162    2.4908 C   0  0  0  0  0  0  0  0  0  0  0  0
  -13.4454    1.5646   -0.1841 O   0  0  0  0  0  0  0  0  0  0  0  0
  -16.1468   -3.0899    1.6979 O   0  0  0  0  0  0  0  0  0  0  0  0
  -13.0738    1.3901   -1.5572 C   0  0  0  0  0  0  0  0  0  0  0  0
  -15.4441   -4.2559    1.2613 C   0  0  0  0  0  0  0  0  0  0  0  0
  -13.2138    2.0482    2.6913 N   0  0  0  0  0  0  0  0  0  0  0  0
  -12.1542    2.5382   -1.9760 C   0  0  0  0  0  0  0  0  0  0  0  0
  -12.1104    2.8339    3.3078 C   0  0  0  0  0  0  0  0  0  0  0  0
  -14.4287    2.1474    3.5426 C   0  0  0  0  0  0  0  0  0  0  0  0
  -12.1052    2.6393   -3.5039 C   0  0  0  0  0  0  0  0  0  0  0  0
  -11.7206    2.2893    4.6924 C   0  0  0  0  0  0  0  0  0  0  0  0
  -14.2025    1.5209    4.9292 C   0  0  0  0  0  0  0  0  0  0  0  0
  -13.4122    3.1153   -4.0095 N   0  0  0  0  0  0  0  0  0  0  0  0
  -12.7487    1.3481    5.2371 N   0  0  0  0  0  0  0  0  0  0  0  0
  -12.3733    0.4458    6.2498 C   0  0  0  0  0  0  0  0  0  0  0  0
  -11.8125    0.8931    7.4093 N   0  0  0  0  0  0  0  0  0  0  0  0
  -12.4370   -0.9003    6.0414 N   0  0  0  0  0  0  0  0  0  0  0  0
  -14.1248    0.3992    0.2917 C   0  0  0  0  0  0  0  0  0  0  0  0
  -13.8492   -0.1025    1.5931 C   0  0  0  0  0  0  0  0  0  0  0  0
  -14.5241   -1.2645    2.0603 C   0  0  0  0  0  0  0  0  0  0  0  0
  -15.4706   -1.9206    1.2272 C   0  0  0  0  0  0  0  0  0  0  0  0
  -15.7444   -1.4165   -0.0714 C   0  0  0  0  0  0  0  0  0  0  0  0
  -15.0708   -0.2575   -0.5391 C   0  0  0  0  0  0  0  0  0  0  0  0
  2  4  1  0  0  0  0
  3  5  1  0  0  0  0
  4  7  1  0  0  0  0
  6  1  1  0  0  0  0
  7 10  1  0  0  0  0
  8  6  1  0  0  0  0
  8 11  1  0  0  0  0
  9  6  1  0  0  0  0
 10 13  1  0  0  0  0
 11 14  1  0  0  0  0
 12  9  1  0  0  0  0
 14 12  1  0  0  0  0
 14 15  1  0  0  0  0
 15 16  1  0  0  0  0
 15 17  1  0  0  0  0
 18  2  1  0  0  0  0
 18 23  2  0  0  0  0
 19  1  1  0  0  0  0
 19 18  1  0  0  0  0
 20 19  2  0  0  0  0
 21  3  1  0  0  0  0
 21 20  1  0  0  0  0
 22 21  2  0  0  0  0
 22 23  1  0  0  0  0
M  END
>  <CHROM.1>
-170.72380061,-161.87005248,-168.26569635,69.51640421,-98.20002439,55.56735254
60.17750099,133.25846610,138.83436435,57.57920373,-94.31770283,-13.55899299
0.57279615,1.86968281,-1.37660353,-1.01686715,-1.29573294

>  <Name>
1uui_lig

>  <RI>
0

>  <Rbt.Current_Directory>
/home/itssahil/PROJECTS/Mol_Feturizer/New_Systems/rnas/1uui

>  <Rbt.Executable>
rbdock ($Id: //depot/dev/client3/rdock/2013.1/src/exe/rbdock.cxx#4 $)

>  <Rbt.Library>
libRbt.so (2013.1, Build901 2013/11/27)

>  <Rbt.Parameter_File>
/export/apps/rDock/src/rDock_2013.1_src/data/scripts/dock_solv.prm

>  <Rbt.Receptor>
prm/pocket_docking_4.prm

>  <SCORE>
-25.8597

>  <SCORE.INTER>
-19.3444

>  <SCORE.INTER.CONST>
1

>  <SCORE.INTER.POLAR>
-2.6043

>  <SCORE.INTER.ROT>
10

>  <SCORE.INTER.SOLV>
7.13162

>  <SCORE.INTER.VDW>
-16.8592

>  <SCORE.INTER.norm>
-0.841063

>  <SCORE.INTRA>
-7.07842

>  <SCORE.INTRA.DIHEDRAL>
-7.51088

>  <SCORE.INTRA.DIHEDRAL.0>
23.4151

>  <SCORE.INTRA.POLAR>
-0.599216

>  <SCORE.INTRA.POLAR.0>
0

>  <SCORE.INTRA.REPUL>
0

>  <SCORE.INTRA.REPUL.0>
0

>  <SCORE.INTRA.SOLV>
0.35789

>  <SCORE.INTRA.SOLV.lig_0>
-17.3568

>  <SCORE.INTRA.VDW>
-1.46459

>  <SCORE.INTRA.VDW.0>
1.0768

>  <SCORE.INTRA.norm>
-0.307757

>  <SCORE.RESTR>
0.563185

>  <SCORE.RESTR.CAVITY>
0.563185

>  <SCORE.RESTR.norm>
0.0244863

>  <SCORE.SYSTEM>
0

>  <SCORE.SYSTEM.CONST>
0

>  <SCORE.SYSTEM.DIHEDRAL>
0

>  <SCORE.SYSTEM.SOLV>
0

>  <SCORE.SYSTEM.norm>
0

>  <SCORE.heavy>
23

>  <SCORE.norm>
-1.12433

>  <RMSD>
5.593

$$$$
1uui_lig
 OpenBabel11021811413D
libRbt.so/2013.1/901 2013/11/27
 23 24  0  0  0  0  0  0  0  0999 V2000
   -9.9498    0.5102    1.5605 C   0  0  0  0  0  0  0  0  0  0  0  0
  -12.1666    0.5851    3.4398 O   0  0  0  0  0  0  0  0  0  0  0  0
  -13.2052    2.0674   -1.9665 O   0  0  0  0  0  0  0  0  0  0  0  0
  -12.9374   -0.5709    3.7910 C   0  0  0  0  0  0  0  0  0  0  0  0
  -13.2786    0.8940   -2.7800 C   0  0  0  0  0  0  0  0  0  0  0  0
   -8.9844    1.6336    1.3250 N   0  0  0  0  0  0  0  0  0  0  0  0
  -12.7401   -0.8705    5.2778 C   0  0  0  0  0  0  0  0  0  0  0  0
   -8.3362    1.5170   -0.0096 C   0  0  0  0  0  0  0  0  0  0  0  0
   -7.9396    1.6666    2.3823 C   0  0  0  0  0  0  0  0  0  0  0  0
  -13.2840    0.2867    6.1218 C   0  0  0  0  0  0  0  0  0  0  0  0
   -7.5329    0.2124   -0.1468 C   0  0  0  0  0  0  0  0  0  0  0  0
   -7.1371    0.3551    2.4280 C   0  0  0  0  0  0  0  0  0  0  0  0
  -12.3473    1.4306    6.0535 N   0  0  0  0  0  0  0  0  0  0  0  0
   -7.3009   -0.4476    1.1761 N   0  0  0  0  0  0  0  0  0  0  0  0
   -6.9823   -1.8181    1.2037 C   0  0  0  0  0  0  0  0  0  0  0  0
   -7.8017   -2.7362    0.6166 N   0  0  0  0  0  0  0  0  0  0  0  0
   -5.9217   -2.2717    1.9309 N   0  0  0  0  0  0  0  0  0  0  0  0
  -12.4256    0.9529    2.0820 C   0  0  0  0  0  0  0  0  0  0  0  0
  -11.3728    0.9324    1.1268 C   0  0  0  0  0  0  0  0  0  0  0  0
  -11.6342    1.3033   -0.2215 C   0  0  0  0  0  0  0  0  0  0  0  0
  -12.9446    1.6930   -0.6107 C   0  0  0  0  0  0  0  0  0  0  0  0
  -13.9940    1.7113    0.3451 C   0  0  0  0  0  0  0  0  0  0  0  0
  -13.7341    1.3423    1.6912 C   0  0  0  0  0  0  0  0  0  0  0  0
  2  4  1  0  0  0  0
  3  5  1  0  0  0  0
  4  7  1  0  0  0  0
  6  1  1  0  0  0  0
  7 10  1  0  0  0  0
  8  6  1  0  0  0  0
  8 11  1  0  0  0  0
  9  6  1  0  0  0  0
 10 13  1  0  0  0  0
 11 14  1  0  0  0  0
 12  9  1  0  0  0  0
 14 12  1  0  0  0  0
 14 15  1  0  0  0  0
 15 16  1  0  0  0  0
 15 17  1  0  0  0  0
 18  2  1  0  0  0  0
 18 23  2  0  0  0  0
 19  1  1  0  0  0  0
 19 18  1  0  0  0  0
 20 19  2  0  0  0  0
 21  3  1  0  0  0  0
 21 20  1  0  0  0  0
 22 21  2  0  0  0  0
 22 23  1  0  0  0  0
M  END
>  <CHROM.1>
-175.01757486,63.58938264,-93.01233399,-75.04185653,51.44628249,-55.80085831
-24.30671375,-87.26531570,-117.84162783,-119.44151542,76.65941587,-10.56188970
0.42581622,1.63737387,0.10605456,0.31577327,-1.38800052

>  <Name>
1uui_lig

>  <RI>
0

>  <Rbt.Current_Directory>
/home/itssahil/PROJECTS/Mol_Feturizer/New_Systems/rnas/1uui

>  <Rbt.Executable>
rbdock ($Id: //depot/dev/client3/rdock/2013.1/src/exe/rbdock.cxx#4 $)

>  <Rbt.Library>
libRbt.so (2013.1, Build901 2013/11/27)

>  <Rbt.Parameter_File>
/export/apps/rDock/src/rDock_2013.1_src/data/scripts/dock_solv.prm

>  <Rbt.Receptor>
prm/pocket_docking_3.prm

>  <SCORE>
-27.7426

>  <SCORE.INTER>
-19.9201

>  <SCORE.INTER.CONST>
1

>  <SCORE.INTER.POLAR>
-2.61339

>  <SCORE.INTER.ROT>
10

>  <SCORE.INTER.SOLV>
7.22525

>  <SCORE.INTER.VDW>
-17.2439

>  <SCORE.INTER.norm>
-0.866092

>  <SCORE.INTRA>
-7.88909

>  <SCORE.INTRA.DIHEDRAL>
-7.40063

>  <SCORE.INTRA.DIHEDRAL.0>
23.4151

>  <SCORE.INTRA.POLAR>
-0.665637

>  <SCORE.INTRA.POLAR.0>
0

>  <SCORE.INTRA.REPUL>
0

>  <SCORE.INTRA.REPUL.0>
0

>  <SCORE.INTRA.SOLV>
0.483172

>  <SCORE.INTRA.SOLV.lig_0>
-17.3568

>  <SCORE.INTRA.VDW>
-2.1672

>  <SCORE.INTRA.VDW.0>
1.0768

>  <SCORE.INTRA.norm>
-0.343004

>  <SCORE.RESTR>
0.0666434

>  <SCORE.RESTR.CAVITY>
0.0666434

>  <SCORE.RESTR.norm>
0.00289754

>  <SCORE.SYSTEM>
0

>  <SCORE.SYSTEM.CONST>
0

>  <SCORE.SYSTEM.DIHEDRAL>
0

>  <SCORE.SYSTEM.SOLV>
0

>  <SCORE.SYSTEM.norm>
0

>  <SCORE.heavy>
23

>  <SCORE.norm>
-1.2062

>  <RMSD>
5.608

$$$$
1uui_lig
 OpenBabel11021811413D
libRbt.so/2013.1/901 2013/11/27
 23 24  0  0  0  0  0  0  0  0999 V2000
   -8.7651   -0.5295    1.0003 C   0  0  0  0  0  0  0  0  0  0  0  0
  -11.2295    0.0888    2.4130 O   0  0  0  0  0  0  0  0  0  0  0  0
  -10.5386    2.2571   -2.8143 O   0  0  0  0  0  0  0  0  0  0  0  0
  -12.5740   -0.3797    2.5772 C   0  0  0  0  0  0  0  0  0  0  0  0
  -11.4895    1.6702   -3.7062 C   0  0  0  0  0  0  0  0  0  0  0  0
   -8.0461   -1.2977   -0.0685 N   0  0  0  0  0  0  0  0  0  0  0  0
  -12.7861   -0.7887    4.0356 C   0  0  0  0  0  0  0  0  0  0  0  0
   -7.5042   -2.5790    0.4599 C   0  0  0  0  0  0  0  0  0  0  0  0
   -6.9386   -0.4924   -0.6477 C   0  0  0  0  0  0  0  0  0  0  0  0
  -12.7412    0.4484    4.9382 C   0  0  0  0  0  0  0  0  0  0  0  0
   -6.4898   -2.3505    1.5933 C   0  0  0  0  0  0  0  0  0  0  0  0
   -5.9080   -0.0930    0.4221 C   0  0  0  0  0  0  0  0  0  0  0  0
  -13.0884    0.0616    6.3240 N   0  0  0  0  0  0  0  0  0  0  0  0
   -6.0281   -0.9284    1.6574 N   0  0  0  0  0  0  0  0  0  0  0  0
   -5.4621   -0.4525    2.8548 C   0  0  0  0  0  0  0  0  0  0  0  0
   -4.9394   -1.3167    3.7706 N   0  0  0  0  0  0  0  0  0  0  0  0
   -5.5442    0.8676    3.1869 N   0  0  0  0  0  0  0  0  0  0  0  0
  -11.0556    0.6285    1.0998 C   0  0  0  0  0  0  0  0  0  0  0  0
   -9.8666    0.3542    0.3703 C   0  0  0  0  0  0  0  0  0  0  0  0
   -9.6961    0.8969   -0.9337 C   0  0  0  0  0  0  0  0  0  0  0  0
  -10.7125    1.7107   -1.5039 C   0  0  0  0  0  0  0  0  0  0  0  0
  -11.8992    1.9818   -0.7734 C   0  0  0  0  0  0  0  0  0  0  0  0
  -12.0699    1.4416    0.5284 C   0  0  0  0  0  0  0  0  0  0  0  0
  2  4  1  0  0  0  0
  3  5  1  0  0  0  0
  4  7  1  0  0  0  0
  6  1  1  0  0  0  0
  7 10  1  0  0  0  0
  8  6  1  0  0  0  0
  8 11  1  0  0  0  0
  9  6  1  0  0  0  0
 10 13  1  0  0  0  0
 11 14  1  0  0  0  0
 12  9  1  0  0  0  0
 14 12  1  0  0  0  0
 14 15  1  0  0  0  0
 15 16  1  0  0  0  0
 15 17  1  0  0  0  0
 18  2  1  0  0  0  0
 18 23  2  0  0  0  0
 19  1  1  0  0  0  0
 19 18  1  0  0  0  0
 20 19  2  0  0  0  0
 21  3  1  0  0  0  0
 21 20  1  0  0  0  0
 22 21  2  0  0  0  0
 22 23  1  0  0  0  0
M  END
>  <CHROM.1>
-172.96572482,67.79342137,-151.82341466,174.07849240,-64.67261678,21.27915374
-50.62716633,77.23410970,-138.45753091,148.47103061,113.38387688,-9.34383826
0.03584466,1.23966718,-0.12321466,0.24913275,-1.31717429

>  <Name>
1uui_lig

>  <RI>
0

>  <Rbt.Current_Directory>
/home/itssahil/PROJECTS/Mol_Feturizer/New_Systems/rnas/1uui

>  <Rbt.Executable>
rbdock ($Id: //depot/dev/client3/rdock/2013.1/src/exe/rbdock.cxx#4 $)

>  <Rbt.Library>
libRbt.so (2013.1, Build901 2013/11/27)

>  <Rbt.Parameter_File>
/export/apps/rDock/src/rDock_2013.1_src/data/scripts/dock_solv.prm

>  <Rbt.Receptor>
prm/pocket_docking_3.prm

>  <SCORE>
-25.5856

>  <SCORE.INTER>
-20.6871

>  <SCORE.INTER.CONST>
1

>  <SCORE.INTER.POLAR>
-1.94071

>  <SCORE.INTER.ROT>
10

>  <SCORE.INTER.SOLV>
9.16481

>  <SCORE.INTER.VDW>
-20.644

>  <SCORE.INTER.norm>
-0.899441

>  <SCORE.INTRA>
-4.89843

>  <SCORE.INTRA.DIHEDRAL>
-10.8442

>  <SCORE.INTRA.DIHEDRAL.0>
23.4151

>  <SCORE.INTRA.POLAR>
0

>  <SCORE.INTRA.POLAR.0>
0

>  <SCORE.INTRA.REPUL>
0

>  <SCORE.INTRA.REPUL.0>
0

>  <SCORE.INTRA.SOLV>
-0.033229

>  <SCORE.INTRA.SOLV.lig_0>
-17.3568

>  <SCORE.INTRA.VDW>
0.5403

>  <SCORE.INTRA.VDW.0>
1.0768

>  <SCORE.INTRA.norm>
-0.212975

>  <SCORE.RESTR>
0

>  <SCORE.RESTR.CAVITY>
0

>  <SCORE.RESTR.norm>
0

>  <SCORE.SYSTEM>
0

>  <SCORE.SYSTEM.CONST>
0

>  <SCORE.SYSTEM.DIHEDRAL>
0

>  <SCORE.SYSTEM.SOLV>
0

>  <SCORE.SYSTEM.norm>
0

>  <SCORE.heavy>
23

>  <SCORE.norm>
-1.11242

>  <RMSD>
5.629

$$$$
1uui_lig
 OpenBabel11021811413D
libRbt.so/2013.1/901 2013/11/27
 23 24  0  0  0  0  0  0  0  0999 V2000
  -12.6348   -0.0807    1.3788 C   0  0  0  0  0  0  0  0  0  0  0  0
  -13.0488    0.7950   -1.3622 O   0  0  0  0  0  0  0  0  0  0  0  0
  -16.5429   -3.2027    0.7146 O   0  0  0  0  0  0  0  0  0  0  0  0
  -13.0559    0.7523   -2.7947 C   0  0  0  0  0  0  0  0  0  0  0  0
  -15.7722   -4.3155    1.1748 C   0  0  0  0  0  0  0  0  0  0  0  0
  -12.8710    1.3814    1.6157 N   0  0  0  0  0  0  0  0  0  0  0  0
  -12.3899    2.0183   -3.3359 C   0  0  0  0  0  0  0  0  0  0  0  0
  -11.7919    1.9736    2.4520 C   0  0  0  0  0  0  0  0  0  0  0  0
  -14.1864    1.6077    2.2705 C   0  0  0  0  0  0  0  0  0  0  0  0
  -13.0868    3.2596   -2.7697 C   0  0  0  0  0  0  0  0  0  0  0  0
  -11.7104    1.3124    3.8384 C   0  0  0  0  0  0  0  0  0  0  0  0
  -14.2759    0.8883    3.6272 C   0  0  0  0  0  0  0  0  0  0  0  0
  -12.3685    4.4750   -3.2139 N   0  0  0  0  0  0  0  0  0  0  0  0
  -12.9280    0.4988    4.1466 N   0  0  0  0  0  0  0  0  0  0  0  0
  -12.8458   -0.4958    5.1388 C   0  0  0  0  0  0  0  0  0  0  0  0
  -13.7041   -1.5551    5.1369 N   0  0  0  0  0  0  0  0  0  0  0  0
  -11.9981   -0.3543    6.1976 N   0  0  0  0  0  0  0  0  0  0  0  0
  -13.9267   -0.2052   -0.8377 C   0  0  0  0  0  0  0  0  0  0  0  0
  -13.7627   -0.6655    0.4974 C   0  0  0  0  0  0  0  0  0  0  0  0
  -14.6354   -1.6636    1.0132 C   0  0  0  0  0  0  0  0  0  0  0  0
  -15.6676   -2.1979    0.1949 C   0  0  0  0  0  0  0  0  0  0  0  0
  -15.8296   -1.7352   -1.1374 C   0  0  0  0  0  0  0  0  0  0  0  0
  -14.9586   -0.7399   -1.6536 C   0  0  0  0  0  0  0  0  0  0  0  0
  2  4  1  0  0  0  0
  3  5  1  0  0  0  0
  4  7  1  0  0  0  0
  6  1  1  0  0  0  0
  7 10  1  0  0  0  0
  8  6  1  0  0  0  0
  8 11  1  0  0  0  0
  9  6  1  0  0  0  0
 10 13  1  0  0  0  0
 11 14  1  0  0  0  0
 12  9  1  0  0  0  0
 14 12  1  0  0  0  0
 14 15  1  0  0  0  0
 15 16  1  0  0  0  0
 15 17  1  0  0  0  0
 18  2  1  0  0  0  0
 18 23  2  0  0  0  0
 19  1  1  0  0  0  0
 19 18  1  0  0  0  0
 20 19  2  0  0  0  0
 21  3  1  0  0  0  0
 21 20  1  0  0  0  0
 22 21  2  0  0  0  0
 22 23  1  0  0  0  0
M  END
>  <CHROM.1>
166.62482916,-55.50518229,-179.46866847,175.55296003,-170.20545830,-156.00327509
-3.70573015,-133.75923747,158.73821278,64.06502219,-56.49439987,-13.62056874
0.11667719,0.99402758,-1.62896553,-0.97028378,-1.23882979

>  <Name>
1uui_lig

>  <RI>
0

>  <Rbt.Current_Directory>
/home/itssahil/PROJECTS/Mol_Feturizer/New_Systems/rnas/1uui

>  <Rbt.Executable>
rbdock ($Id: //depot/dev/client3/rdock/2013.1/src/exe/rbdock.cxx#4 $)

>  <Rbt.Library>
libRbt.so (2013.1, Build901 2013/11/27)

>  <Rbt.Parameter_File>
/export/apps/rDock/src/rDock_2013.1_src/data/scripts/dock_solv.prm

>  <Rbt.Receptor>
prm/pocket_docking_6.prm

>  <SCORE>
-23.1448

>  <SCORE.INTER>
-17.6648

>  <SCORE.INTER.CONST>
1

>  <SCORE.INTER.POLAR>
-2.09127

>  <SCORE.INTER.ROT>
10

>  <SCORE.INTER.SOLV>
7.52603

>  <SCORE.INTER.VDW>
-17.581

>  <SCORE.INTER.norm>
-0.768033

>  <SCORE.INTRA>
-5.48006

>  <SCORE.INTRA.DIHEDRAL>
-13.7926

>  <SCORE.INTRA.DIHEDRAL.0>
23.4151

>  <SCORE.INTRA.POLAR>
-0.231627

>  <SCORE.INTRA.POLAR.0>
0

>  <SCORE.INTRA.REPUL>
0

>  <SCORE.INTRA.REPUL.0>
0

>  <SCORE.INTRA.SOLV>
0.390513

>  <SCORE.INTRA.SOLV.lig_0>
-17.3568

>  <SCORE.INTRA.VDW>
2.00854

>  <SCORE.INTRA.VDW.0>
1.0768

>  <SCORE.INTRA.norm>
-0.238263

>  <SCORE.RESTR>
0

>  <SCORE.RESTR.CAVITY>
0

>  <SCORE.RESTR.norm>
0

>  <SCORE.SYSTEM>
0

>  <SCORE.SYSTEM.CONST>
0

>  <SCORE.SYSTEM.DIHEDRAL>
0

>  <SCORE.SYSTEM.SOLV>
0

>  <SCORE.SYSTEM.norm>
0

>  <SCORE.heavy>
23

>  <SCORE.norm>
-1.0063

>  <RMSD>
5.635

$$$$
1uui_lig
 OpenBabel11021811413D
libRbt.so/2013.1/901 2013/11/27
 23 24  0  0  0  0  0  0  0  0999 V2000
  -12.7625    0.7961    0.4432 C   0  0  0  0  0  0  0  0  0  0  0  0
  -12.8821    2.2212    2.9742 O   0  0  0  0  0  0  0  0  0  0  0  0
  -10.4100    4.8412   -1.4448 O   0  0  0  0  0  0  0  0  0  0  0  0
  -12.1963    2.5590    4.1864 C   0  0  0  0  0  0  0  0  0  0  0  0
  -11.3949    5.5673   -2.1842 C   0  0  0  0  0  0  0  0  0  0  0  0
  -14.0959    0.7012    1.1233 N   0  0  0  0  0  0  0  0  0  0  0  0
  -12.7166    1.6723    5.3188 C   0  0  0  0  0  0  0  0  0  0  0  0
  -14.6593   -0.6721    1.0170 C   0  0  0  0  0  0  0  0  0  0  0  0
  -15.0572    1.6776    0.5462 C   0  0  0  0  0  0  0  0  0  0  0  0
  -12.2371    0.2312    5.1180 C   0  0  0  0  0  0  0  0  0  0  0  0
  -14.8828   -1.0903   -0.4463 C   0  0  0  0  0  0  0  0  0  0  0  0
  -15.2753    1.4378   -0.9575 C   0  0  0  0  0  0  0  0  0  0  0  0
  -12.5337   -0.5617    6.3320 N   0  0  0  0  0  0  0  0  0  0  0  0
  -14.8209    0.0767   -1.3811 N   0  0  0  0  0  0  0  0  0  0  0  0
  -14.5713   -0.1599   -2.7457 C   0  0  0  0  0  0  0  0  0  0  0  0
  -15.3702   -0.9983   -3.4654 N   0  0  0  0  0  0  0  0  0  0  0  0
  -13.4507    0.3354   -3.3445 N   0  0  0  0  0  0  0  0  0  0  0  0
  -12.2658    2.8781    1.8630 C   0  0  0  0  0  0  0  0  0  0  0  0
  -12.1832    2.2206    0.6052 C   0  0  0  0  0  0  0  0  0  0  0  0
  -11.5652    2.8761   -0.4958 C   0  0  0  0  0  0  0  0  0  0  0  0
  -11.0326    4.1843   -0.3371 C   0  0  0  0  0  0  0  0  0  0  0  0
  -11.1177    4.8387    0.9198 C   0  0  0  0  0  0  0  0  0  0  0  0
  -11.7332    4.1851    2.0196 C   0  0  0  0  0  0  0  0  0  0  0  0
  2  4  1  0  0  0  0
  3  5  1  0  0  0  0
  4  7  1  0  0  0  0
  6  1  1  0  0  0  0
  7 10  1  0  0  0  0
  8  6  1  0  0  0  0
  8 11  1  0  0  0  0
  9  6  1  0  0  0  0
 10 13  1  0  0  0  0
 11 14  1  0  0  0  0
 12  9  1  0  0  0  0
 14 12  1  0  0  0  0
 14 15  1  0  0  0  0
 15 16  1  0  0  0  0
 15 17  1  0  0  0  0
 18  2  1  0  0  0  0
 18 23  2  0  0  0  0
 19  1  1  0  0  0  0
 19 18  1  0  0  0  0
 20 19  2  0  0  0  0
 21  3  1  0  0  0  0
 21 20  1  0  0  0  0
 22 21  2  0  0  0  0
 22 23  1  0  0  0  0
M  END
>  <CHROM.1>
-170.60888453,70.63478954,-178.34537769,169.83970948,-43.71796581,56.06177637
177.27859768,-139.65093895,143.99956973,43.15087525,88.93867253,-13.03473006
1.67341791,0.68822243,1.98147299,-0.95628299,-1.31375461

>  <Name>
1uui_lig

>  <RI>
0

>  <Rbt.Current_Directory>
/home/itssahil/PROJECTS/Mol_Feturizer/New_Systems/rnas/1uui

>  <Rbt.Executable>
rbdock ($Id: //depot/dev/client3/rdock/2013.1/src/exe/rbdock.cxx#4 $)

>  <Rbt.Library>
libRbt.so (2013.1, Build901 2013/11/27)

>  <Rbt.Parameter_File>
/export/apps/rDock/src/rDock_2013.1_src/data/scripts/dock_solv.prm

>  <Rbt.Receptor>
prm/pocket_docking_8.prm

>  <SCORE>
-27.1313

>  <SCORE.INTER>
-18.4831

>  <SCORE.INTER.CONST>
1

>  <SCORE.INTER.POLAR>
-3.5337

>  <SCORE.INTER.ROT>
10

>  <SCORE.INTER.SOLV>
6.89918

>  <SCORE.INTER.VDW>
-13.1095

>  <SCORE.INTER.norm>
-0.803615

>  <SCORE.INTRA>
-8.64817

>  <SCORE.INTRA.DIHEDRAL>
-10.7898

>  <SCORE.INTRA.DIHEDRAL.0>
23.4151

>  <SCORE.INTRA.POLAR>
-0.615854

>  <SCORE.INTRA.POLAR.0>
0

>  <SCORE.INTRA.REPUL>
0

>  <SCORE.INTRA.REPUL.0>
0

>  <SCORE.INTRA.SOLV>
0.442876

>  <SCORE.INTRA.SOLV.lig_0>
-17.3568

>  <SCORE.INTRA.VDW>
-1.38082

>  <SCORE.INTRA.VDW.0>
1.0768

>  <SCORE.INTRA.norm>
-0.376007

>  <SCORE.RESTR>
0

>  <SCORE.RESTR.CAVITY>
0

>  <SCORE.RESTR.norm>
0

>  <SCORE.SYSTEM>
0

>  <SCORE.SYSTEM.CONST>
0

>  <SCORE.SYSTEM.DIHEDRAL>
0

>  <SCORE.SYSTEM.SOLV>
0

>  <SCORE.SYSTEM.norm>
0

>  <SCORE.heavy>
23

>  <SCORE.norm>
-1.17962

>  <RMSD>
5.639

$$$$
1uui_lig
 OpenBabel11021811413D
libRbt.so/2013.1/901 2013/11/27
 23 24  0  0  0  0  0  0  0  0999 V2000
  -12.8119    1.0492    2.1309 C   0  0  0  0  0  0  0  0  0  0  0  0
  -12.3137   -0.3070   -0.3918 O   0  0  0  0  0  0  0  0  0  0  0  0
   -7.8114    1.5730    2.5575 O   0  0  0  0  0  0  0  0  0  0  0  0
  -12.1652    0.0329   -1.7761 C   0  0  0  0  0  0  0  0  0  0  0  0
   -7.7126    2.9927    2.4202 C   0  0  0  0  0  0  0  0  0  0  0  0
  -13.1187    2.5155    2.2036 N   0  0  0  0  0  0  0  0  0  0  0  0
  -13.2986   -0.6137   -2.5739 C   0  0  0  0  0  0  0  0  0  0  0  0
  -14.2908    2.7785    3.0822 C   0  0  0  0  0  0  0  0  0  0  0  0
  -13.3794    3.0714    0.8496 C   0  0  0  0  0  0  0  0  0  0  0  0
  -14.5243    0.3053   -2.5813 C   0  0  0  0  0  0  0  0  0  0  0  0
  -15.5643    2.0893    2.5636 C   0  0  0  0  0  0  0  0  0  0  0  0
  -14.5688    2.3726    0.1688 C   0  0  0  0  0  0  0  0  0  0  0  0
  -15.5428   -0.2372   -3.5081 N   0  0  0  0  0  0  0  0  0  0  0  0
  -15.4169    1.6249    1.1486 N   0  0  0  0  0  0  0  0  0  0  0  0
  -16.2816    0.6231    0.6700 C   0  0  0  0  0  0  0  0  0  0  0  0
  -15.7964   -0.5924    0.2878 N   0  0  0  0  0  0  0  0  0  0  0  0
  -17.6011    0.8889    0.4510 N   0  0  0  0  0  0  0  0  0  0  0  0
  -11.1854    0.1622    0.3518 C   0  0  0  0  0  0  0  0  0  0  0  0
  -11.3794    0.8318    1.5908 C   0  0  0  0  0  0  0  0  0  0  0  0
  -10.2544    1.3007    2.3246 C   0  0  0  0  0  0  0  0  0  0  0  0
   -8.9413    1.0993    1.8192 C   0  0  0  0  0  0  0  0  0  0  0  0
   -8.7508    0.4291    0.5823 C   0  0  0  0  0  0  0  0  0  0  0  0
   -9.8728   -0.0383   -0.1514 C   0  0  0  0  0  0  0  0  0  0  0  0
  2  4  1  0  0  0  0
  3  5  1  0  0  0  0
  4  7  1  0  0  0  0
  6  1  1  0  0  0  0
  7 10  1  0  0  0  0
  8  6  1  0  0  0  0
  8 11  1  0  0  0  0
  9  6  1  0  0  0  0
 10 13  1  0  0  0  0
 11 14  1  0  0  0  0
 12  9  1  0  0  0  0
 14 12  1  0  0  0  0
 14 15  1  0  0  0  0
 15 16  1  0  0  0  0
 15 17  1  0  0  0  0
 18  2  1  0  0  0  0
 18 23  2  0  0  0  0
 19  1  1  0  0  0  0
 19 18  1  0  0  0  0
 20 19  2  0  0  0  0
 21  3  1  0  0  0  0
 21 20  1  0  0  0  0
 22 21  2  0  0  0  0
 22 23  1  0  0  0  0
M  END
>  <CHROM.1>
173.62620385,86.92016959,-162.79559731,172.09919758,-164.85974529,-116.01910500
-170.25631101,-43.03284753,134.76304204,-116.20344303,-75.14811715,-12.80964912
1.03449367,0.57625118,0.35385884,-0.06112567,1.05207534

>  <Name>
1uui_lig

>  <RI>
0

>  <Rbt.Current_Directory>
/home/itssahil/PROJECTS/Mol_Feturizer/New_Systems/rnas/1uui

>  <Rbt.Executable>
rbdock ($Id: //depot/dev/client3/rdock/2013.1/src/exe/rbdock.cxx#4 $)

>  <Rbt.Library>
libRbt.so (2013.1, Build901 2013/11/27)

>  <Rbt.Parameter_File>
/export/apps/rDock/src/rDock_2013.1_src/data/scripts/dock_solv.prm

>  <Rbt.Receptor>
prm/pocket_docking_5.prm

>  <SCORE>
-13.9191

>  <SCORE.INTER>
-7.39709

>  <SCORE.INTER.CONST>
1

>  <SCORE.INTER.POLAR>
-1.60834

>  <SCORE.INTER.ROT>
10

>  <SCORE.INTER.SOLV>
3.94386

>  <SCORE.INTER.VDW>
-11.1515

>  <SCORE.INTER.norm>
-0.321613

>  <SCORE.INTRA>
-7.11794

>  <SCORE.INTRA.DIHEDRAL>
-8.35127

>  <SCORE.INTRA.DIHEDRAL.0>
23.4151

>  <SCORE.INTRA.POLAR>
0

>  <SCORE.INTRA.POLAR.0>
0

>  <SCORE.INTRA.REPUL>
0.0187641

>  <SCORE.INTRA.REPUL.0>
0

>  <SCORE.INTRA.SOLV>
1.23547

>  <SCORE.INTRA.SOLV.lig_0>
-17.3568

>  <SCORE.INTRA.VDW>
-3.65386

>  <SCORE.INTRA.VDW.0>
1.0768

>  <SCORE.INTRA.norm>
-0.309476

>  <SCORE.RESTR>
0.595901

>  <SCORE.RESTR.CAVITY>
0.595901

>  <SCORE.RESTR.norm>
0.0259087

>  <SCORE.SYSTEM>
0

>  <SCORE.SYSTEM.CONST>
0

>  <SCORE.SYSTEM.DIHEDRAL>
0

>  <SCORE.SYSTEM.SOLV>
0

>  <SCORE.SYSTEM.norm>
0

>  <SCORE.heavy>
23

>  <SCORE.norm>
-0.60518

>  <RMSD>
5.644

$$$$
1uui_lig
 OpenBabel11021811413D
libRbt.so/2013.1/901 2013/11/27
 23 24  0  0  0  0  0  0  0  0999 V2000
   -8.6378    1.7396   -0.2232 C   0  0  0  0  0  0  0  0  0  0  0  0
   -8.5550    4.0024   -2.0465 O   0  0  0  0  0  0  0  0  0  0  0  0
  -13.4038    1.0217   -1.7170 O   0  0  0  0  0  0  0  0  0  0  0  0
   -7.9546    3.8144   -3.3342 C   0  0  0  0  0  0  0  0  0  0  0  0
  -13.3049   -0.1392   -2.5456 C   0  0  0  0  0  0  0  0  0  0  0  0
   -8.9311    1.9694    1.2296 N   0  0  0  0  0  0  0  0  0  0  0  0
   -7.4508    2.3746   -3.4454 C   0  0  0  0  0  0  0  0  0  0  0  0
   -7.6765    2.0720    2.0236 C   0  0  0  0  0  0  0  0  0  0  0  0
   -9.7779    0.8781    1.7796 C   0  0  0  0  0  0  0  0  0  0  0  0
   -7.3122    1.9805   -4.9193 C   0  0  0  0  0  0  0  0  0  0  0  0
   -6.8384    0.7847    1.9437 C   0  0  0  0  0  0  0  0  0  0  0  0
   -9.0935   -0.4930    1.6464 C   0  0  0  0  0  0  0  0  0  0  0  0
   -6.9440    0.5503   -5.0157 N   0  0  0  0  0  0  0  0  0  0  0  0
   -7.6240   -0.3655    1.3963 N   0  0  0  0  0  0  0  0  0  0  0  0
   -6.9305   -1.4652    0.8578 C   0  0  0  0  0  0  0  0  0  0  0  0
   -7.0161   -1.7608   -0.4705 N   0  0  0  0  0  0  0  0  0  0  0  0
   -6.2680   -2.3365    1.6711 N   0  0  0  0  0  0  0  0  0  0  0  0
   -9.7718    3.2554   -1.9593 C   0  0  0  0  0  0  0  0  0  0  0  0
   -9.8597    2.1401   -1.0820 C   0  0  0  0  0  0  0  0  0  0  0  0
  -11.0705    1.3974   -1.0020 C   0  0  0  0  0  0  0  0  0  0  0  0
  -12.1878    1.7707   -1.7974 C   0  0  0  0  0  0  0  0  0  0  0  0
  -12.0973    2.8857   -2.6715 C   0  0  0  0  0  0  0  0  0  0  0  0
  -10.8891    3.6269   -2.7530 C   0  0  0  0  0  0  0  0  0  0  0  0
  2  4  1  0  0  0  0
  3  5  1  0  0  0  0
  4  7  1  0  0  0  0
  6  1  1  0  0  0  0
  7 10  1  0  0  0  0
  8  6  1  0  0  0  0
  8 11  1  0  0  0  0
  9  6  1  0  0  0  0
 10 13  1  0  0  0  0
 11 14  1  0  0  0  0
 12  9  1  0  0  0  0
 14 12  1  0  0  0  0
 14 15  1  0  0  0  0
 15 16  1  0  0  0  0
 15 17  1  0  0  0  0
 18  2  1  0  0  0  0
 18 23  2  0  0  0  0
 19  1  1  0  0  0  0
 19 18  1  0  0  0  0
 20 19  2  0  0  0  0
 21  3  1  0  0  0  0
 21 20  1  0  0  0  0
 22 21  2  0  0  0  0
 22 23  1  0  0  0  0
M  END
>  <CHROM.1>
-68.94779244,158.15290555,-159.54004096,-174.86637749,30.98109116,-114.26479742
-117.43208565,-143.96376857,112.10219181,113.03067818,-82.26016302,-9.05536376
1.22884601,-0.98675929,1.00385221,-0.18528327,2.05456246

>  <Name>
1uui_lig

>  <RI>
0

>  <Rbt.Current_Directory>
/home/itssahil/PROJECTS/Mol_Feturizer/New_Systems/rnas/1uui

>  <Rbt.Executable>
rbdock ($Id: //depot/dev/client3/rdock/2013.1/src/exe/rbdock.cxx#4 $)

>  <Rbt.Library>
libRbt.so (2013.1, Build901 2013/11/27)

>  <Rbt.Parameter_File>
/export/apps/rDock/src/rDock_2013.1_src/data/scripts/dock_solv.prm

>  <Rbt.Receptor>
prm/pocket_docking_8.prm

>  <SCORE>
-25.957

>  <SCORE.INTER>
-20.7708

>  <SCORE.INTER.CONST>
1

>  <SCORE.INTER.POLAR>
-3.2641

>  <SCORE.INTER.ROT>
10

>  <SCORE.INTER.SOLV>
5.72625

>  <SCORE.INTER.VDW>
-15.1423

>  <SCORE.INTER.norm>
-0.90308

>  <SCORE.INTRA>
-5.18619

>  <SCORE.INTRA.DIHEDRAL>
-5.66308

>  <SCORE.INTRA.DIHEDRAL.0>
23.4151

>  <SCORE.INTRA.POLAR>
0

>  <SCORE.INTRA.POLAR.0>
0

>  <SCORE.INTRA.REPUL>
0

>  <SCORE.INTRA.REPUL.0>
0

>  <SCORE.INTRA.SOLV>
-0.0953796

>  <SCORE.INTRA.SOLV.lig_0>
-17.3568

>  <SCORE.INTRA.VDW>
-2.30696

>  <SCORE.INTRA.VDW.0>
1.0768

>  <SCORE.INTRA.norm>
-0.225486

>  <SCORE.RESTR>
0

>  <SCORE.RESTR.CAVITY>
0

>  <SCORE.RESTR.norm>
0

>  <SCORE.SYSTEM>
0

>  <SCORE.SYSTEM.CONST>
0

>  <SCORE.SYSTEM.DIHEDRAL>
0

>  <SCORE.SYSTEM.SOLV>
0

>  <SCORE.SYSTEM.norm>
0

>  <SCORE.heavy>
23

>  <SCORE.norm>
-1.12857

>  <RMSD>
5.658

$$$$
1uui_lig
 OpenBabel11021811413D
libRbt.so/2013.1/901 2013/11/27
 23 24  0  0  0  0  0  0  0  0999 V2000
  -12.0914    0.6659   -1.3940 C   0  0  0  0  0  0  0  0  0  0  0  0
   -9.6969    0.0632    0.1403 O   0  0  0  0  0  0  0  0  0  0  0  0
  -14.1457    2.3028    2.9144 O   0  0  0  0  0  0  0  0  0  0  0  0
   -8.5988   -0.1179    1.0434 C   0  0  0  0  0  0  0  0  0  0  0  0
  -14.5181    3.5378    2.2976 C   0  0  0  0  0  0  0  0  0  0  0  0
  -12.8344    1.7776   -2.0735 N   0  0  0  0  0  0  0  0  0  0  0  0
   -7.7502   -1.2982    0.5682 C   0  0  0  0  0  0  0  0  0  0  0  0
  -12.7804    1.6366   -3.5540 C   0  0  0  0  0  0  0  0  0  0  0  0
  -12.2840    3.1018   -1.6812 C   0  0  0  0  0  0  0  0  0  0  0  0
   -6.3535   -1.2242    1.1933 C   0  0  0  0  0  0  0  0  0  0  0  0
  -11.3373    1.6855   -4.0841 C   0  0  0  0  0  0  0  0  0  0  0  0
  -10.7968    3.2307   -2.0527 C   0  0  0  0  0  0  0  0  0  0  0  0
   -6.4645   -1.3349    2.6650 N   0  0  0  0  0  0  0  0  0  0  0  0
  -10.3786    2.2065   -3.0599 N   0  0  0  0  0  0  0  0  0  0  0  0
   -9.0086    1.9192   -3.2052 C   0  0  0  0  0  0  0  0  0  0  0  0
   -8.4319    0.9006   -2.5059 N   0  0  0  0  0  0  0  0  0  0  0  0
   -8.2010    2.7338   -3.9425 N   0  0  0  0  0  0  0  0  0  0  0  0
  -10.8157    0.6216    0.8349 C   0  0  0  0  0  0  0  0  0  0  0  0
  -12.0083    0.9336    0.1267 C   0  0  0  0  0  0  0  0  0  0  0  0
  -13.1169    1.4930    0.8209 C   0  0  0  0  0  0  0  0  0  0  0  0
  -13.0307    1.7386    2.2183 C   0  0  0  0  0  0  0  0  0  0  0  0
  -11.8389    1.4248    2.9229 C   0  0  0  0  0  0  0  0  0  0  0  0
  -10.7316    0.8675    2.2309 C   0  0  0  0  0  0  0  0  0  0  0  0
  2  4  1  0  0  0  0
  3  5  1  0  0  0  0
  4  7  1  0  0  0  0
  6  1  1  0  0  0  0
  7 10  1  0  0  0  0
  8  6  1  0  0  0  0
  8 11  1  0  0  0  0
  9  6  1  0  0  0  0
 10 13  1  0  0  0  0
 11 14  1  0  0  0  0
 12  9  1  0  0  0  0
 14 12  1  0  0  0  0
 14 15  1  0  0  0  0
 15 16  1  0  0  0  0
 15 17  1  0  0  0  0
 18  2  1  0  0  0  0
 18 23  2  0  0  0  0
 19  1  1  0  0  0  0
 19 18  1  0  0  0  0
 20 19  2  0  0  0  0
 21  3  1  0  0  0  0
 21 20  1  0  0  0  0
 22 21  2  0  0  0  0
 22 23  1  0  0  0  0
M  END
>  <CHROM.1>
150.68305949,160.61049049,172.75721744,62.65488203,-171.59276657,-98.82275260
174.17708607,156.22890756,177.76106699,-140.96949430,-55.94928905,-10.68383947
1.24572007,-0.34624549,-2.96918602,-0.42564044,1.84058159

>  <Name>
1uui_lig

>  <RI>
0

>  <Rbt.Current_Directory>
/home/itssahil/PROJECTS/Mol_Feturizer/New_Systems/rnas/1uui

>  <Rbt.Executable>
rbdock ($Id: //depot/dev/client3/rdock/2013.1/src/exe/rbdock.cxx#4 $)

>  <Rbt.Library>
libRbt.so (2013.1, Build901 2013/11/27)

>  <Rbt.Parameter_File>
/export/apps/rDock/src/rDock_2013.1_src/data/scripts/dock_solv.prm

>  <Rbt.Receptor>
prm/pocket_docking_6.prm

>  <SCORE>
-18.8951

>  <SCORE.INTER>
-14.5281

>  <SCORE.INTER.CONST>
1

>  <SCORE.INTER.POLAR>
-2.02297

>  <SCORE.INTER.ROT>
10

>  <SCORE.INTER.SOLV>
6.12534

>  <SCORE.INTER.VDW>
-15.2506

>  <SCORE.INTER.norm>
-0.631656

>  <SCORE.INTRA>
-4.36698

>  <SCORE.INTRA.DIHEDRAL>
-10.7582

>  <SCORE.INTRA.DIHEDRAL.0>
23.4151

>  <SCORE.INTRA.POLAR>
-1

>  <SCORE.INTRA.POLAR.0>
0

>  <SCORE.INTRA.REPUL>
0.264167

>  <SCORE.INTRA.REPUL.0>
0

>  <SCORE.INTRA.SOLV>
0.952633

>  <SCORE.INTRA.SOLV.lig_0>
-17.3568

>  <SCORE.INTRA.VDW>
2.61496

>  <SCORE.INTRA.VDW.0>
1.0768

>  <SCORE.INTRA.norm>
-0.189869

>  <SCORE.RESTR>
0

>  <SCORE.RESTR.CAVITY>
0

>  <SCORE.RESTR.norm>
0

>  <SCORE.SYSTEM>
0

>  <SCORE.SYSTEM.CONST>
0

>  <SCORE.SYSTEM.DIHEDRAL>
0

>  <SCORE.SYSTEM.SOLV>
0

>  <SCORE.SYSTEM.norm>
0

>  <SCORE.heavy>
23

>  <SCORE.norm>
-0.821525

>  <RMSD>
5.664

$$$$
1uui_lig
 OpenBabel11021811413D
libRbt.so/2013.1/901 2013/11/27
 23 24  0  0  0  0  0  0  0  0999 V2000
   -8.9091   -0.1827    1.2966 C   0  0  0  0  0  0  0  0  0  0  0  0
  -11.3408    0.2398    2.8327 O   0  0  0  0  0  0  0  0  0  0  0  0
  -10.6781    3.2215   -1.9813 O   0  0  0  0  0  0  0  0  0  0  0  0
  -12.2723    0.9061    3.6945 C   0  0  0  0  0  0  0  0  0  0  0  0
  -10.1248    4.5033   -1.6735 C   0  0  0  0  0  0  0  0  0  0  0  0
   -8.2103   -0.7668    0.1050 N   0  0  0  0  0  0  0  0  0  0  0  0
  -12.3222    0.1750    5.0369 C   0  0  0  0  0  0  0  0  0  0  0  0
   -7.6363   -2.1037    0.4179 C   0  0  0  0  0  0  0  0  0  0  0  0
   -7.1308    0.1367   -0.3734 C   0  0  0  0  0  0  0  0  0  0  0  0
  -13.3052    0.8770    5.9793 C   0  0  0  0  0  0  0  0  0  0  0  0
   -6.5933   -2.0319    1.5462 C   0  0  0  0  0  0  0  0  0  0  0  0
   -6.0758    0.3872    0.7177 C   0  0  0  0  0  0  0  0  0  0  0  0
  -14.6384    0.2451    5.8623 N   0  0  0  0  0  0  0  0  0  0  0  0
   -6.1494   -0.6281    1.8141 N   0  0  0  0  0  0  0  0  0  0  0  0
   -5.5563   -0.3294    3.0549 C   0  0  0  0  0  0  0  0  0  0  0  0
   -4.9544   -1.3053    3.7928 N   0  0  0  0  0  0  0  0  0  0  0  0
   -5.6870    0.9099    3.6085 N   0  0  0  0  0  0  0  0  0  0  0  0
  -11.1741    0.9840    1.6225 C   0  0  0  0  0  0  0  0  0  0  0  0
  -10.0011    0.8116    0.8380 C   0  0  0  0  0  0  0  0  0  0  0  0
   -9.8376    1.5572   -0.3625 C   0  0  0  0  0  0  0  0  0  0  0  0
  -10.8450    2.4712   -0.7748 C   0  0  0  0  0  0  0  0  0  0  0  0
  -12.0158    2.6402    0.0100 C   0  0  0  0  0  0  0  0  0  0  0  0
  -12.1795    1.8975    1.2088 C   0  0  0  0  0  0  0  0  0  0  0  0
  2  4  1  0  0  0  0
  3  5  1  0  0  0  0
  4  7  1  0  0  0  0
  6  1  1  0  0  0  0
  7 10  1  0  0  0  0
  8  6  1  0  0  0  0
  8 11  1  0  0  0  0
  9  6  1  0  0  0  0
 10 13  1  0  0  0  0
 11 14  1  0  0  0  0
 12  9  1  0  0  0  0
 14 12  1  0  0  0  0
 14 15  1  0  0  0  0
 15 16  1  0  0  0  0
 15 17  1  0  0  0  0
 18  2  1  0  0  0  0
 18 23  2  0  0  0  0
 19  1  1  0  0  0  0
 19 18  1  0  0  0  0
 20 19  2  0  0  0  0
 21  3  1  0  0  0  0
 21 20  1  0  0  0  0
 22 21  2  0  0  0  0
 22 23  1  0  0  0  0
M  END
>  <CHROM.1>
-174.05656330,179.57196481,-154.16797237,93.24220618,32.32328964,23.61359121
131.18746067,-133.25564326,157.75998405,149.10112029,-95.13489307,-9.45266600
0.61701871,1.72694857,-0.11332783,-0.34091671,2.03065038

>  <Name>
1uui_lig

>  <RI>
0

>  <Rbt.Current_Directory>
/home/itssahil/PROJECTS/Mol_Feturizer/New_Systems/rnas/1uui

>  <Rbt.Executable>
rbdock ($Id: //depot/dev/client3/rdock/2013.1/src/exe/rbdock.cxx#4 $)

>  <Rbt.Library>
libRbt.so (2013.1, Build901 2013/11/27)

>  <Rbt.Parameter_File>
/export/apps/rDock/src/rDock_2013.1_src/data/scripts/dock_solv.prm

>  <Rbt.Receptor>
prm/pocket_docking_3.prm

>  <SCORE>
-22.8985

>  <SCORE.INTER>
-20.9284

>  <SCORE.INTER.CONST>
1

>  <SCORE.INTER.POLAR>
-2.9758

>  <SCORE.INTER.ROT>
10

>  <SCORE.INTER.SOLV>
7.85648

>  <SCORE.INTER.VDW>
-16.9184

>  <SCORE.INTER.norm>
-0.90993

>  <SCORE.INTRA>
-1.97036

>  <SCORE.INTRA.DIHEDRAL>
-7.45853

>  <SCORE.INTRA.DIHEDRAL.0>
23.4151

>  <SCORE.INTRA.POLAR>
0

>  <SCORE.INTRA.POLAR.0>
0

>  <SCORE.INTRA.REPUL>
0

>  <SCORE.INTRA.REPUL.0>
0

>  <SCORE.INTRA.SOLV>
-0.00541728

>  <SCORE.INTRA.SOLV.lig_0>
-17.3568

>  <SCORE.INTRA.VDW>
1.76161

>  <SCORE.INTRA.VDW.0>
1.0768

>  <SCORE.INTRA.norm>
-0.0856678

>  <SCORE.RESTR>
0.000281481

>  <SCORE.RESTR.CAVITY>
0.000281481

>  <SCORE.RESTR.norm>
1.22383e-05

>  <SCORE.SYSTEM>
0

>  <SCORE.SYSTEM.CONST>
0

>  <SCORE.SYSTEM.DIHEDRAL>
0

>  <SCORE.SYSTEM.SOLV>
0

>  <SCORE.SYSTEM.norm>
0

>  <SCORE.heavy>
23

>  <SCORE.norm>
-0.995586

>  <RMSD>
5.677

$$$$
1uui_lig
 OpenBabel11021811413D
libRbt.so/2013.1/901 2013/11/27
 23 24  0  0  0  0  0  0  0  0999 V2000
  -10.2577    0.1740    0.0438 C   0  0  0  0  0  0  0  0  0  0  0  0
  -12.3057   -0.4480    2.0110 O   0  0  0  0  0  0  0  0  0  0  0  0
  -13.9427    2.0699   -2.8350 O   0  0  0  0  0  0  0  0  0  0  0  0
  -12.8087    0.2857    3.1347 C   0  0  0  0  0  0  0  0  0  0  0  0
  -13.3216    3.3536   -2.9372 C   0  0  0  0  0  0  0  0  0  0  0  0
   -9.4671    1.4395    0.1949 N   0  0  0  0  0  0  0  0  0  0  0  0
  -14.2514   -0.1432    3.4065 C   0  0  0  0  0  0  0  0  0  0  0  0
   -8.2813    1.4455   -0.7043 C   0  0  0  0  0  0  0  0  0  0  0  0
   -9.0234    1.6239    1.6019 C   0  0  0  0  0  0  0  0  0  0  0  0
  -14.8012    0.6092    4.6225 C   0  0  0  0  0  0  0  0  0  0  0  0
   -7.3181    0.2871   -0.3935 C   0  0  0  0  0  0  0  0  0  0  0  0
   -8.1417    0.4561    2.0762 C   0  0  0  0  0  0  0  0  0  0  0  0
  -14.2180    0.0424    5.8591 N   0  0  0  0  0  0  0  0  0  0  0  0
   -7.6073   -0.3455    0.9315 N   0  0  0  0  0  0  0  0  0  0  0  0
   -7.1357   -1.6482    1.1785 C   0  0  0  0  0  0  0  0  0  0  0  0
   -7.8025   -2.7345    0.6944 N   0  0  0  0  0  0  0  0  0  0  0  0
   -6.0812   -1.8594    2.0170 N   0  0  0  0  0  0  0  0  0  0  0  0
  -12.7146    0.1803    0.7927 C   0  0  0  0  0  0  0  0  0  0  0  0
  -11.7487    0.5042   -0.1989 C   0  0  0  0  0  0  0  0  0  0  0  0
  -12.1595    1.1331   -1.4070 C   0  0  0  0  0  0  0  0  0  0  0  0
  -13.5318    1.4359   -1.6204 C   0  0  0  0  0  0  0  0  0  0  0  0
  -14.4940    1.1100   -0.6289 C   0  0  0  0  0  0  0  0  0  0  0  0
  -14.0851    0.4833    0.5777 C   0  0  0  0  0  0  0  0  0  0  0  0
  2  4  1  0  0  0  0
  3  5  1  0  0  0  0
  4  7  1  0  0  0  0
  6  1  1  0  0  0  0
  7 10  1  0  0  0  0
  8  6  1  0  0  0  0
  8 11  1  0  0  0  0
  9  6  1  0  0  0  0
 10 13  1  0  0  0  0
 11 14  1  0  0  0  0
 12  9  1  0  0  0  0
 14 12  1  0  0  0  0
 14 15  1  0  0  0  0
 15 16  1  0  0  0  0
 15 17  1  0  0  0  0
 18  2  1  0  0  0  0
 18 23  2  0  0  0  0
 19  1  1  0  0  0  0
 19 18  1  0  0  0  0
 20 19  2  0  0  0  0
 21  3  1  0  0  0  0
 21 20  1  0  0  0  0
 22 21  2  0  0  0  0
 22 23  1  0  0  0  0
M  END
>  <CHROM.1>
83.07243088,178.88590097,-128.77016890,-74.95860063,-161.49585415,-80.10208937
154.02917538,117.87079277,127.68210160,-112.30409355,-61.94775852,-11.07290332
0.38615059,0.86081569,-0.07317372,0.24616849,-1.21035945

>  <Name>
1uui_lig

>  <RI>
0

>  <Rbt.Current_Directory>
/home/itssahil/PROJECTS/Mol_Feturizer/New_Systems/rnas/1uui

>  <Rbt.Executable>
rbdock ($Id: //depot/dev/client3/rdock/2013.1/src/exe/rbdock.cxx#4 $)

>  <Rbt.Library>
libRbt.so (2013.1, Build901 2013/11/27)

>  <Rbt.Parameter_File>
/export/apps/rDock/src/rDock_2013.1_src/data/scripts/dock_solv.prm

>  <Rbt.Receptor>
prm/pocket_docking_3.prm

>  <SCORE>
-23.6601

>  <SCORE.INTER>
-20.7762

>  <SCORE.INTER.CONST>
1

>  <SCORE.INTER.POLAR>
-3.50607

>  <SCORE.INTER.ROT>
10

>  <SCORE.INTER.SOLV>
6.7004

>  <SCORE.INTER.VDW>
-14.664

>  <SCORE.INTER.norm>
-0.903314

>  <SCORE.INTRA>
-2.88386

>  <SCORE.INTRA.DIHEDRAL>
-5.14831

>  <SCORE.INTRA.DIHEDRAL.0>
23.4151

>  <SCORE.INTRA.POLAR>
0

>  <SCORE.INTRA.POLAR.0>
0

>  <SCORE.INTRA.REPUL>
0

>  <SCORE.INTRA.REPUL.0>
0

>  <SCORE.INTRA.SOLV>
0.0850297

>  <SCORE.INTRA.SOLV.lig_0>
-17.3568

>  <SCORE.INTRA.VDW>
-0.352221

>  <SCORE.INTRA.VDW.0>
1.0768

>  <SCORE.INTRA.norm>
-0.125385

>  <SCORE.RESTR>
0

>  <SCORE.RESTR.CAVITY>
0

>  <SCORE.RESTR.norm>
0

>  <SCORE.SYSTEM>
0

>  <SCORE.SYSTEM.CONST>
0

>  <SCORE.SYSTEM.DIHEDRAL>
0

>  <SCORE.SYSTEM.SOLV>
0

>  <SCORE.SYSTEM.norm>
0

>  <SCORE.heavy>
23

>  <SCORE.norm>
-1.0287

>  <RMSD>
5.707

$$$$
1uui_lig
 OpenBabel11021811413D
libRbt.so/2013.1/901 2013/11/27
 23 24  0  0  0  0  0  0  0  0999 V2000
  -14.6032    0.7929    1.6586 C   0  0  0  0  0  0  0  0  0  0  0  0
  -14.8063   -2.0567    1.1202 O   0  0  0  0  0  0  0  0  0  0  0  0
  -15.5745    1.5397   -3.2364 O   0  0  0  0  0  0  0  0  0  0  0  0
  -16.0762   -2.4902    1.6236 C   0  0  0  0  0  0  0  0  0  0  0  0
  -16.9643    1.5944   -3.5675 C   0  0  0  0  0  0  0  0  0  0  0  0
  -13.3903    1.6745    1.6246 N   0  0  0  0  0  0  0  0  0  0  0  0
  -15.8533   -3.5955    2.6570 C   0  0  0  0  0  0  0  0  0  0  0  0
  -12.1382    0.8707    1.6541 C   0  0  0  0  0  0  0  0  0  0  0  0
  -13.3945    2.6279    2.7654 C   0  0  0  0  0  0  0  0  0  0  0  0
  -17.1971   -4.0509    3.2347 C   0  0  0  0  0  0  0  0  0  0  0  0
  -12.0287    0.0235    2.9332 C   0  0  0  0  0  0  0  0  0  0  0  0
  -13.4083    1.8945    4.1175 C   0  0  0  0  0  0  0  0  0  0  0  0
  -16.9995   -5.2801    4.0350 N   0  0  0  0  0  0  0  0  0  0  0  0
  -13.0009    0.4612    3.9834 N   0  0  0  0  0  0  0  0  0  0  0  0
  -13.3394   -0.4384    5.0114 C   0  0  0  0  0  0  0  0  0  0  0  0
  -14.5581   -1.0492    5.0299 N   0  0  0  0  0  0  0  0  0  0  0  0
  -12.5122   -0.6164    6.0808 N   0  0  0  0  0  0  0  0  0  0  0  0
  -14.9948   -1.1526    0.0279 C   0  0  0  0  0  0  0  0  0  0  0  0
  -14.9057    0.2500    0.2426 C   0  0  0  0  0  0  0  0  0  0  0  0
  -15.0985    1.1454   -0.8459 C   0  0  0  0  0  0  0  0  0  0  0  0
  -15.3792    0.6377   -2.1435 C   0  0  0  0  0  0  0  0  0  0  0  0
  -15.4663   -0.7633   -2.3550 C   0  0  0  0  0  0  0  0  0  0  0  0
  -15.2752   -1.6579   -1.2692 C   0  0  0  0  0  0  0  0  0  0  0  0
  2  4  1  0  0  0  0
  3  5  1  0  0  0  0
  4  7  1  0  0  0  0
  6  1  1  0  0  0  0
  7 10  1  0  0  0  0
  8  6  1  0  0  0  0
  8 11  1  0  0  0  0
  9  6  1  0  0  0  0
 10 13  1  0  0  0  0
 11 14  1  0  0  0  0
 12  9  1  0  0  0  0
 14 12  1  0  0  0  0
 14 15  1  0  0  0  0
 15 16  1  0  0  0  0
 15 17  1  0  0  0  0
 18  2  1  0  0  0  0
 18 23  2  0  0  0  0
 19  1  1  0  0  0  0
 19 18  1  0  0  0  0
 20 19  2  0  0  0  0
 21  3  1  0  0  0  0
 21 20  1  0  0  0  0
 22 21  2  0  0  0  0
 22 23  1  0  0  0  0
M  END
>  <CHROM.1>
172.33804291,178.61545566,-81.35604213,169.45739473,-64.68003105,-106.41459338
132.89814957,87.35750188,99.16486048,124.05130033,-105.84675827,-14.65909727
-0.46330683,1.57941881,-1.90514477,0.92952018,2.15401191

>  <Name>
1uui_lig

>  <RI>
0

>  <Rbt.Current_Directory>
/home/itssahil/PROJECTS/Mol_Feturizer/New_Systems/rnas/1uui

>  <Rbt.Executable>
rbdock ($Id: //depot/dev/client3/rdock/2013.1/src/exe/rbdock.cxx#4 $)

>  <Rbt.Library>
libRbt.so (2013.1, Build901 2013/11/27)

>  <Rbt.Parameter_File>
/export/apps/rDock/src/rDock_2013.1_src/data/scripts/dock_solv.prm

>  <Rbt.Receptor>
prm/pocket_docking_6.prm

>  <SCORE>
-26.5519

>  <SCORE.INTER>
-18.8083

>  <SCORE.INTER.CONST>
1

>  <SCORE.INTER.POLAR>
-2.7502

>  <SCORE.INTER.ROT>
10

>  <SCORE.INTER.SOLV>
6.92221

>  <SCORE.INTER.VDW>
-15.9456

>  <SCORE.INTER.norm>
-0.817751

>  <SCORE.INTRA>
-7.74366

>  <SCORE.INTRA.DIHEDRAL>
-8.21678

>  <SCORE.INTRA.DIHEDRAL.0>
23.4151

>  <SCORE.INTRA.POLAR>
0

>  <SCORE.INTRA.POLAR.0>
0

>  <SCORE.INTRA.REPUL>
0

>  <SCORE.INTRA.REPUL.0>
0

>  <SCORE.INTRA.SOLV>
0.341815

>  <SCORE.INTRA.SOLV.lig_0>
-17.3568

>  <SCORE.INTRA.VDW>
-3.80618

>  <SCORE.INTRA.VDW.0>
1.0768

>  <SCORE.INTRA.norm>
-0.336681

>  <SCORE.RESTR>
0

>  <SCORE.RESTR.CAVITY>
0

>  <SCORE.RESTR.norm>
0

>  <SCORE.SYSTEM>
0

>  <SCORE.SYSTEM.CONST>
0

>  <SCORE.SYSTEM.DIHEDRAL>
0

>  <SCORE.SYSTEM.SOLV>
0

>  <SCORE.SYSTEM.norm>
0

>  <SCORE.heavy>
23

>  <SCORE.norm>
-1.15443

>  <RMSD>
5.714

$$$$
1uui_lig
 OpenBabel11021811413D
libRbt.so/2013.1/901 2013/11/27
 23 24  0  0  0  0  0  0  0  0999 V2000
   -9.7952    0.1058    0.9437 C   0  0  0  0  0  0  0  0  0  0  0  0
  -11.8818    1.4851    2.4254 O   0  0  0  0  0  0  0  0  0  0  0  0
  -13.0813   -0.2596   -2.8681 O   0  0  0  0  0  0  0  0  0  0  0  0
  -12.7224    0.8101    3.3696 C   0  0  0  0  0  0  0  0  0  0  0  0
  -14.2475   -1.0864   -2.8472 C   0  0  0  0  0  0  0  0  0  0  0  0
   -8.9589    1.3481    0.8619 N   0  0  0  0  0  0  0  0  0  0  0  0
  -12.4329    1.3490    4.7713 C   0  0  0  0  0  0  0  0  0  0  0  0
   -8.0454    1.3070   -0.3122 C   0  0  0  0  0  0  0  0  0  0  0  0
   -8.1626    1.5351    2.1034 C   0  0  0  0  0  0  0  0  0  0  0  0
  -13.0852    0.4473    5.8242 C   0  0  0  0  0  0  0  0  0  0  0  0
   -7.0660    0.1233   -0.2377 C   0  0  0  0  0  0  0  0  0  0  0  0
   -7.2199    0.3463    2.3571 C   0  0  0  0  0  0  0  0  0  0  0  0
  -12.3268   -0.8194    5.9278 N   0  0  0  0  0  0  0  0  0  0  0  0
   -7.0205   -0.4846    1.1290 N   0  0  0  0  0  0  0  0  0  0  0  0
   -6.5361   -1.7982    1.2712 C   0  0  0  0  0  0  0  0  0  0  0  0
   -5.5651   -2.0883    2.1833 N   0  0  0  0  0  0  0  0  0  0  0  0
   -6.9280   -2.7815    0.4115 N   0  0  0  0  0  0  0  0  0  0  0  0
  -12.1817    1.0430    1.0984 C   0  0  0  0  0  0  0  0  0  0  0  0
  -11.1929    0.3646    0.3348 C   0  0  0  0  0  0  0  0  0  0  0  0
  -11.4943   -0.0692   -0.9861 C   0  0  0  0  0  0  0  0  0  0  0  0
  -12.7806    0.1757   -1.5391 C   0  0  0  0  0  0  0  0  0  0  0  0
  -13.7663    0.8523   -0.7736 C   0  0  0  0  0  0  0  0  0  0  0  0
  -13.4662    1.2866    0.5444 C   0  0  0  0  0  0  0  0  0  0  0  0
  2  4  1  0  0  0  0
  3  5  1  0  0  0  0
  4  7  1  0  0  0  0
  6  1  1  0  0  0  0
  7 10  1  0  0  0  0
  8  6  1  0  0  0  0
  8 11  1  0  0  0  0
  9  6  1  0  0  0  0
 10 13  1  0  0  0  0
 11 14  1  0  0  0  0
 12  9  1  0  0  0  0
 14 12  1  0  0  0  0
 14 15  1  0  0  0  0
 15 16  1  0  0  0  0
 15 17  1  0  0  0  0
 18  2  1  0  0  0  0
 18 23  2  0  0  0  0
 19  1  1  0  0  0  0
 19 18  1  0  0  0  0
 20 19  2  0  0  0  0
 21  3  1  0  0  0  0
 21 20  1  0  0  0  0
 22 21  2  0  0  0  0
 22 23  1  0  0  0  0
M  END
>  <CHROM.1>
-177.19176065,-167.78284360,-98.15355258,73.30854490,99.74010541,128.87827994
-80.97710262,-2.69487528,-116.72085676,-79.46539022,124.80466623,-10.38943966
0.09466160,1.18239000,-0.08189781,0.20367308,-1.66297600

>  <Name>
1uui_lig

>  <RI>
0

>  <Rbt.Current_Directory>
/home/itssahil/PROJECTS/Mol_Feturizer/New_Systems/rnas/1uui

>  <Rbt.Executable>
rbdock ($Id: //depot/dev/client3/rdock/2013.1/src/exe/rbdock.cxx#4 $)

>  <Rbt.Library>
libRbt.so (2013.1, Build901 2013/11/27)

>  <Rbt.Parameter_File>
/export/apps/rDock/src/rDock_2013.1_src/data/scripts/dock_solv.prm

>  <Rbt.Receptor>
prm/pocket_docking_5.prm

>  <SCORE>
-29.8376

>  <SCORE.INTER>
-26.3646

>  <SCORE.INTER.CONST>
1

>  <SCORE.INTER.POLAR>
-3.1384

>  <SCORE.INTER.ROT>
10

>  <SCORE.INTER.SOLV>
7.64146

>  <SCORE.INTER.VDW>
-19.9289

>  <SCORE.INTER.norm>
-1.14629

>  <SCORE.INTRA>
-3.47292

>  <SCORE.INTRA.DIHEDRAL>
-5.55898

>  <SCORE.INTRA.DIHEDRAL.0>
23.4151

>  <SCORE.INTRA.POLAR>
0

>  <SCORE.INTRA.POLAR.0>
0

>  <SCORE.INTRA.REPUL>
0

>  <SCORE.INTRA.REPUL.0>
0

>  <SCORE.INTRA.SOLV>
0.188922

>  <SCORE.INTRA.SOLV.lig_0>
-17.3568

>  <SCORE.INTRA.VDW>
-0.787895

>  <SCORE.INTRA.VDW.0>
1.0768

>  <SCORE.INTRA.norm>
-0.150997

>  <SCORE.RESTR>
0

>  <SCORE.RESTR.CAVITY>
0

>  <SCORE.RESTR.norm>
0

>  <SCORE.SYSTEM>
0

>  <SCORE.SYSTEM.CONST>
0

>  <SCORE.SYSTEM.DIHEDRAL>
0

>  <SCORE.SYSTEM.SOLV>
0

>  <SCORE.SYSTEM.norm>
0

>  <SCORE.heavy>
23

>  <SCORE.norm>
-1.29728

>  <RMSD>
5.739

$$$$
1uui_lig
 OpenBabel11021811413D
libRbt.so/2013.1/901 2013/11/27
 23 24  0  0  0  0  0  0  0  0999 V2000
   -7.8640    2.2984    1.1903 C   0  0  0  0  0  0  0  0  0  0  0  0
   -8.2954    0.6678   -1.1775 O   0  0  0  0  0  0  0  0  0  0  0  0
   -5.6007   -1.7162    3.2450 O   0  0  0  0  0  0  0  0  0  0  0  0
   -7.3383    1.2042   -2.0996 C   0  0  0  0  0  0  0  0  0  0  0  0
   -4.1961   -1.7547    2.9806 C   0  0  0  0  0  0  0  0  0  0  0  0
   -9.2452    2.4237    0.6193 N   0  0  0  0  0  0  0  0  0  0  0  0
   -6.9478    0.1181   -3.1031 C   0  0  0  0  0  0  0  0  0  0  0  0
   -9.6192    3.8503    0.4199 C   0  0  0  0  0  0  0  0  0  0  0  0
  -10.2461    1.7674    1.5014 C   0  0  0  0  0  0  0  0  0  0  0  0
   -5.9969    0.6956   -4.1563 C   0  0  0  0  0  0  0  0  0  0  0  0
   -9.6187    4.6352    1.7427 C   0  0  0  0  0  0  0  0  0  0  0  0
  -10.2575    2.3901    2.9079 C   0  0  0  0  0  0  0  0  0  0  0  0
   -6.1877   -0.0186   -5.4386 N   0  0  0  0  0  0  0  0  0  0  0  0
   -9.5931    3.7303    2.9344 N   0  0  0  0  0  0  0  0  0  0  0  0
   -9.1601    4.2475    4.1695 C   0  0  0  0  0  0  0  0  0  0  0  0
   -7.8365    4.2552    4.4965 N   0  0  0  0  0  0  0  0  0  0  0  0
  -10.0615    4.6275    5.1195 N   0  0  0  0  0  0  0  0  0  0  0  0
   -7.6229    0.0706   -0.0652 C   0  0  0  0  0  0  0  0  0  0  0  0
   -7.3886    0.8289    1.1143 C   0  0  0  0  0  0  0  0  0  0  0  0
   -6.7153    0.2321    2.2163 C   0  0  0  0  0  0  0  0  0  0  0  0
   -6.2790   -1.1183    2.1366 C   0  0  0  0  0  0  0  0  0  0  0  0
   -6.5156   -1.8733    0.9580 C   0  0  0  0  0  0  0  0  0  0  0  0
   -7.1864   -1.2784   -0.1429 C   0  0  0  0  0  0  0  0  0  0  0  0
  2  4  1  0  0  0  0
  3  5  1  0  0  0  0
  4  7  1  0  0  0  0
  6  1  1  0  0  0  0
  7 10  1  0  0  0  0
  8  6  1  0  0  0  0
  8 11  1  0  0  0  0
  9  6  1  0  0  0  0
 10 13  1  0  0  0  0
 11 14  1  0  0  0  0
 12  9  1  0  0  0  0
 14 12  1  0  0  0  0
 14 15  1  0  0  0  0
 15 16  1  0  0  0  0
 15 17  1  0  0  0  0
 18  2  1  0  0  0  0
 18 23  2  0  0  0  0
 19  1  1  0  0  0  0
 19 18  1  0  0  0  0
 20 19  2  0  0  0  0
 21  3  1  0  0  0  0
 21 20  1  0  0  0  0
 22 21  2  0  0  0  0
 22 23  1  0  0  0  0
M  END
>  <CHROM.1>
88.82104299,176.19406928,-168.29986643,-149.60497592,-48.03768365,-86.78340214
177.71856300,126.63604607,93.71901353,43.20887565,-102.06854835,-7.81567189
1.34996289,0.91710827,2.24613600,-0.92923708,1.54095528

>  <Name>
1uui_lig

>  <RI>
0

>  <Rbt.Current_Directory>
/home/itssahil/PROJECTS/Mol_Feturizer/New_Systems/rnas/1uui

>  <Rbt.Executable>
rbdock ($Id: //depot/dev/client3/rdock/2013.1/src/exe/rbdock.cxx#4 $)

>  <Rbt.Library>
libRbt.so (2013.1, Build901 2013/11/27)

>  <Rbt.Parameter_File>
/export/apps/rDock/src/rDock_2013.1_src/data/scripts/dock_solv.prm

>  <Rbt.Receptor>
prm/pocket_docking_7.prm

>  <SCORE>
-25.4797

>  <SCORE.INTER>
-18.2237

>  <SCORE.INTER.CONST>
1

>  <SCORE.INTER.POLAR>
-2.73565

>  <SCORE.INTER.ROT>
10

>  <SCORE.INTER.SOLV>
5.40508

>  <SCORE.INTER.VDW>
-15.0987

>  <SCORE.INTER.norm>
-0.792336

>  <SCORE.INTRA>
-7.25598

>  <SCORE.INTRA.DIHEDRAL>
-2.94874

>  <SCORE.INTRA.DIHEDRAL.0>
23.4151

>  <SCORE.INTRA.POLAR>
-0.742881

>  <SCORE.INTRA.POLAR.0>
0

>  <SCORE.INTRA.REPUL>
0

>  <SCORE.INTRA.REPUL.0>
0

>  <SCORE.INTRA.SOLV>
0.295051

>  <SCORE.INTRA.SOLV.lig_0>
-17.3568

>  <SCORE.INTRA.VDW>
-3.40334

>  <SCORE.INTRA.VDW.0>
1.0768

>  <SCORE.INTRA.norm>
-0.315477

>  <SCORE.RESTR>
0

>  <SCORE.RESTR.CAVITY>
0

>  <SCORE.RESTR.norm>
0

>  <SCORE.SYSTEM>
0

>  <SCORE.SYSTEM.CONST>
0

>  <SCORE.SYSTEM.DIHEDRAL>
0

>  <SCORE.SYSTEM.SOLV>
0

>  <SCORE.SYSTEM.norm>
0

>  <SCORE.heavy>
23

>  <SCORE.norm>
-1.10781

>  <RMSD>
5.742

$$$$
1uui_lig
 OpenBabel11021811413D
libRbt.so/2013.1/901 2013/11/27
 23 24  0  0  0  0  0  0  0  0999 V2000
  -10.8349    0.5215    1.1364 C   0  0  0  0  0  0  0  0  0  0  0  0
  -13.5803    0.0952    1.9923 O   0  0  0  0  0  0  0  0  0  0  0  0
  -12.5992    0.7494   -3.5856 O   0  0  0  0  0  0  0  0  0  0  0  0
  -13.3260   -1.2598    2.3840 C   0  0  0  0  0  0  0  0  0  0  0  0
  -12.2930    2.1194   -3.8567 C   0  0  0  0  0  0  0  0  0  0  0  0
  -10.0570    1.7912    0.9567 N   0  0  0  0  0  0  0  0  0  0  0  0
  -14.4335   -2.1567    1.8289 C   0  0  0  0  0  0  0  0  0  0  0  0
   -9.2828    1.7742   -0.3141 C   0  0  0  0  0  0  0  0  0  0  0  0
   -9.1310    2.0129    2.0985 C   0  0  0  0  0  0  0  0  0  0  0  0
  -15.7539   -1.8648    2.5488 C   0  0  0  0  0  0  0  0  0  0  0  0
   -8.2608    0.6252   -0.3496 C   0  0  0  0  0  0  0  0  0  0  0  0
   -8.1248    0.8586    2.2453 C   0  0  0  0  0  0  0  0  0  0  0  0
  -15.6909   -2.3935    3.9298 N   0  0  0  0  0  0  0  0  0  0  0  0
   -8.0383    0.0275    1.0043 N   0  0  0  0  0  0  0  0  0  0  0  0
   -7.4956   -1.2679    1.0929 C   0  0  0  0  0  0  0  0  0  0  0  0
   -8.0348   -2.2997    0.3834 N   0  0  0  0  0  0  0  0  0  0  0  0
   -6.5070   -1.5485    1.9893 N   0  0  0  0  0  0  0  0  0  0  0  0
  -13.3312    0.2558    0.5929 C   0  0  0  0  0  0  0  0  0  0  0  0
  -12.0049    0.4673    0.1267 C   0  0  0  0  0  0  0  0  0  0  0  0
  -11.7626    0.6310   -1.2655 C   0  0  0  0  0  0  0  0  0  0  0  0
  -12.8444    0.5828   -2.1862 C   0  0  0  0  0  0  0  0  0  0  0  0
  -14.1675    0.3702   -1.7178 C   0  0  0  0  0  0  0  0  0  0  0  0
  -14.4106    0.2078   -0.3284 C   0  0  0  0  0  0  0  0  0  0  0  0
  2  4  1  0  0  0  0
  3  5  1  0  0  0  0
  4  7  1  0  0  0  0
  6  1  1  0  0  0  0
  7 10  1  0  0  0  0
  8  6  1  0  0  0  0
  8 11  1  0  0  0  0
  9  6  1  0  0  0  0
 10 13  1  0  0  0  0
 11 14  1  0  0  0  0
 12  9  1  0  0  0  0
 14 12  1  0  0  0  0
 14 15  1  0  0  0  0
 15 16  1  0  0  0  0
 15 17  1  0  0  0  0
 18  2  1  0  0  0  0
 18 23  2  0  0  0  0
 19  1  1  0  0  0  0
 19 18  1  0  0  0  0
 20 19  2  0  0  0  0
 21  3  1  0  0  0  0
 21 20  1  0  0  0  0
 22 21  2  0  0  0  0
 22 23  1  0  0  0  0
M  END
>  <CHROM.1>
-71.95003122,-69.13609517,-70.72134307,-71.97932399,60.47861568,-51.01064103
-71.32044053,133.68679671,-82.47930170,-125.93648328,-72.96323410,-11.36758440
-0.02525065,0.51276447,-0.09621196,0.09898627,2.06075321

>  <Name>
1uui_lig

>  <RI>
0

>  <Rbt.Current_Directory>
/home/itssahil/PROJECTS/Mol_Feturizer/New_Systems/rnas/1uui

>  <Rbt.Executable>
rbdock ($Id: //depot/dev/client3/rdock/2013.1/src/exe/rbdock.cxx#4 $)

>  <Rbt.Library>
libRbt.so (2013.1, Build901 2013/11/27)

>  <Rbt.Parameter_File>
/export/apps/rDock/src/rDock_2013.1_src/data/scripts/dock_solv.prm

>  <Rbt.Receptor>
prm/pocket_docking_4.prm

>  <SCORE>
-21.5161

>  <SCORE.INTER>
-16.7039

>  <SCORE.INTER.CONST>
1

>  <SCORE.INTER.POLAR>
-2.26642

>  <SCORE.INTER.ROT>
10

>  <SCORE.INTER.SOLV>
7.35874

>  <SCORE.INTER.VDW>
-16.3008

>  <SCORE.INTER.norm>
-0.726257

>  <SCORE.INTRA>
-4.81218

>  <SCORE.INTRA.DIHEDRAL>
-8.07057

>  <SCORE.INTRA.DIHEDRAL.0>
23.4151

>  <SCORE.INTRA.POLAR>
0

>  <SCORE.INTRA.POLAR.0>
0

>  <SCORE.INTRA.REPUL>
0

>  <SCORE.INTRA.REPUL.0>
0

>  <SCORE.INTRA.SOLV>
0.22659

>  <SCORE.INTRA.SOLV.lig_0>
-17.3568

>  <SCORE.INTRA.VDW>
-0.890187

>  <SCORE.INTRA.VDW.0>
1.0768

>  <SCORE.INTRA.norm>
-0.209225

>  <SCORE.RESTR>
0

>  <SCORE.RESTR.CAVITY>
0

>  <SCORE.RESTR.norm>
0

>  <SCORE.SYSTEM>
0

>  <SCORE.SYSTEM.CONST>
0

>  <SCORE.SYSTEM.DIHEDRAL>
0

>  <SCORE.SYSTEM.SOLV>
0

>  <SCORE.SYSTEM.norm>
0

>  <SCORE.heavy>
23

>  <SCORE.norm>
-0.935483

>  <RMSD>
5.747

$$$$
1uui_lig
 OpenBabel11021811413D
libRbt.so/2013.1/901 2013/11/27
 23 24  0  0  0  0  0  0  0  0999 V2000
   -9.6292   -0.0292    1.6744 C   0  0  0  0  0  0  0  0  0  0  0  0
  -12.1154    0.3677    3.1280 O   0  0  0  0  0  0  0  0  0  0  0  0
  -12.3450    0.2712   -2.5678 O   0  0  0  0  0  0  0  0  0  0  0  0
  -12.9742   -0.6419    3.6730 C   0  0  0  0  0  0  0  0  0  0  0  0
  -12.3315    1.6111   -3.0663 C   0  0  0  0  0  0  0  0  0  0  0  0
   -8.8005    1.2130    1.5345 N   0  0  0  0  0  0  0  0  0  0  0  0
  -12.8027   -0.6772    5.1924 C   0  0  0  0  0  0  0  0  0  0  0  0
   -8.3429    1.4010    0.1310 C   0  0  0  0  0  0  0  0  0  0  0  0
   -7.6212    1.1695    2.4388 C   0  0  0  0  0  0  0  0  0  0  0  0
  -13.3938    0.5913    5.8157 C   0  0  0  0  0  0  0  0  0  0  0  0
   -7.4657    0.2324   -0.3493 C   0  0  0  0  0  0  0  0  0  0  0  0
   -6.7180   -0.0382    2.1355 C   0  0  0  0  0  0  0  0  0  0  0  0
  -12.5302    1.7490    5.4926 N   0  0  0  0  0  0  0  0  0  0  0  0
   -6.9945   -0.6215    0.7858 N   0  0  0  0  0  0  0  0  0  0  0  0
   -6.5667   -1.9345    0.5146 C   0  0  0  0  0  0  0  0  0  0  0  0
   -6.2663   -2.3210   -0.7579 N   0  0  0  0  0  0  0  0  0  0  0  0
   -6.5718   -2.8843    1.4931 N   0  0  0  0  0  0  0  0  0  0  0  0
  -12.1711    0.3393    1.6989 C   0  0  0  0  0  0  0  0  0  0  0  0
  -10.9810    0.1486    0.9449 C   0  0  0  0  0  0  0  0  0  0  0  0
  -11.0407    0.1255   -0.4763 C   0  0  0  0  0  0  0  0  0  0  0  0
  -12.2871    0.2928   -1.1387 C   0  0  0  0  0  0  0  0  0  0  0  0
  -13.4739    0.4818   -0.3830 C   0  0  0  0  0  0  0  0  0  0  0  0
  -13.4154    0.5060    1.0354 C   0  0  0  0  0  0  0  0  0  0  0  0
  2  4  1  0  0  0  0
  3  5  1  0  0  0  0
  4  7  1  0  0  0  0
  6  1  1  0  0  0  0
  7 10  1  0  0  0  0
  8  6  1  0  0  0  0
  8 11  1  0  0  0  0
  9  6  1  0  0  0  0
 10 13  1  0  0  0  0
 11 14  1  0  0  0  0
 12  9  1  0  0  0  0
 14 12  1  0  0  0  0
 14 15  1  0  0  0  0
 15 16  1  0  0  0  0
 15 17  1  0  0  0  0
 18  2  1  0  0  0  0
 18 23  2  0  0  0  0
 19  1  1  0  0  0  0
 19 18  1  0  0  0  0
 20 19  2  0  0  0  0
 21  3  1  0  0  0  0
 21 20  1  0  0  0  0
 22 21  2  0  0  0  0
 22 23  1  0  0  0  0
M  END
>  <CHROM.1>
174.92757532,69.63775587,-68.88235992,-71.33917758,48.98089312,16.17976037
17.74283649,171.79729359,-122.53026000,-106.39747567,-96.87863946,-10.25663472
0.05483615,1.28937015,-0.46139190,-0.26553941,1.60655310

>  <Name>
1uui_lig

>  <RI>
0

>  <Rbt.Current_Directory>
/home/itssahil/PROJECTS/Mol_Feturizer/New_Systems/rnas/1uui

>  <Rbt.Executable>
rbdock ($Id: //depot/dev/client3/rdock/2013.1/src/exe/rbdock.cxx#4 $)

>  <Rbt.Library>
libRbt.so (2013.1, Build901 2013/11/27)

>  <Rbt.Parameter_File>
/export/apps/rDock/src/rDock_2013.1_src/data/scripts/dock_solv.prm

>  <Rbt.Receptor>
prm/pocket_docking_5.prm

>  <SCORE>
-28.824

>  <SCORE.INTER>
-21.1652

>  <SCORE.INTER.CONST>
1

>  <SCORE.INTER.POLAR>
-2.54255

>  <SCORE.INTER.ROT>
10

>  <SCORE.INTER.SOLV>
6.79252

>  <SCORE.INTER.VDW>
-18.1658

>  <SCORE.INTER.norm>
-0.920228

>  <SCORE.INTRA>
-7.65872

>  <SCORE.INTRA.DIHEDRAL>
-9.57253

>  <SCORE.INTRA.DIHEDRAL.0>
23.4151

>  <SCORE.INTRA.POLAR>
-0.687732

>  <SCORE.INTRA.POLAR.0>
0

>  <SCORE.INTRA.REPUL>
0

>  <SCORE.INTRA.REPUL.0>
0

>  <SCORE.INTRA.SOLV>
0.581361

>  <SCORE.INTRA.SOLV.lig_0>
-17.3568

>  <SCORE.INTRA.VDW>
-0.824848

>  <SCORE.INTRA.VDW.0>
1.0768

>  <SCORE.INTRA.norm>
-0.332988

>  <SCORE.RESTR>
0

>  <SCORE.RESTR.CAVITY>
0

>  <SCORE.RESTR.norm>
0

>  <SCORE.SYSTEM>
0

>  <SCORE.SYSTEM.CONST>
0

>  <SCORE.SYSTEM.DIHEDRAL>
0

>  <SCORE.SYSTEM.SOLV>
0

>  <SCORE.SYSTEM.norm>
0

>  <SCORE.heavy>
23

>  <SCORE.norm>
-1.25322

>  <RMSD>
5.772

$$$$
1uui_lig
 OpenBabel11021811413D
libRbt.so/2013.1/901 2013/11/27
 23 24  0  0  0  0  0  0  0  0999 V2000
  -10.0023   -0.0197    1.5616 C   0  0  0  0  0  0  0  0  0  0  0  0
  -12.4501   -0.5500    3.0375 O   0  0  0  0  0  0  0  0  0  0  0  0
  -12.8789    0.4744   -2.5545 O   0  0  0  0  0  0  0  0  0  0  0  0
  -13.0338    0.5305    3.7764 C   0  0  0  0  0  0  0  0  0  0  0  0
  -12.8260    1.8845   -2.7846 C   0  0  0  0  0  0  0  0  0  0  0  0
   -9.2571    1.2316    1.2032 N   0  0  0  0  0  0  0  0  0  0  0  0
  -12.8242    0.2843    5.2713 C   0  0  0  0  0  0  0  0  0  0  0  0
   -8.6250    1.1172   -0.1393 C   0  0  0  0  0  0  0  0  0  0  0  0
   -8.2142    1.5378    2.2177 C   0  0  0  0  0  0  0  0  0  0  0  0
  -13.3197    1.4907    6.0752 C   0  0  0  0  0  0  0  0  0  0  0  0
   -7.6052   -0.0327   -0.1987 C   0  0  0  0  0  0  0  0  0  0  0  0
   -7.1904    0.3965    2.3410 C   0  0  0  0  0  0  0  0  0  0  0  0
  -14.7992    1.4859    6.1115 N   0  0  0  0  0  0  0  0  0  0  0  0
   -7.2333   -0.5264    1.1642 N   0  0  0  0  0  0  0  0  0  0  0  0
   -6.6754   -1.8122    1.2910 C   0  0  0  0  0  0  0  0  0  0  0  0
   -5.6888   -2.0576    2.1995 N   0  0  0  0  0  0  0  0  0  0  0  0
   -7.0119   -2.8059    0.4198 N   0  0  0  0  0  0  0  0  0  0  0  0
  -12.5549   -0.2965    1.6336 C   0  0  0  0  0  0  0  0  0  0  0  0
  -11.3853   -0.0314    0.8700 C   0  0  0  0  0  0  0  0  0  0  0  0
  -11.4949    0.2246   -0.5251 C   0  0  0  0  0  0  0  0  0  0  0  0
  -12.7705    0.2149   -1.1520 C   0  0  0  0  0  0  0  0  0  0  0  0
  -13.9364   -0.0514   -0.3871 C   0  0  0  0  0  0  0  0  0  0  0  0
  -13.8284   -0.3059    1.0055 C   0  0  0  0  0  0  0  0  0  0  0  0
  2  4  1  0  0  0  0
  3  5  1  0  0  0  0
  4  7  1  0  0  0  0
  6  1  1  0  0  0  0
  7 10  1  0  0  0  0
  8  6  1  0  0  0  0
  8 11  1  0  0  0  0
  9  6  1  0  0  0  0
 10 13  1  0  0  0  0
 11 14  1  0  0  0  0
 12  9  1  0  0  0  0
 14 12  1  0  0  0  0
 14 15  1  0  0  0  0
 15 16  1  0  0  0  0
 15 17  1  0  0  0  0
 18  2  1  0  0  0  0
 18 23  2  0  0  0  0
 19  1  1  0  0  0  0
 19 18  1  0  0  0  0
 20 19  2  0  0  0  0
 21  3  1  0  0  0  0
 21 20  1  0  0  0  0
 22 21  2  0  0  0  0
 22 23  1  0  0  0  0
M  END
>  <CHROM.1>
-176.11740218,174.56729654,-80.21077005,75.18380214,-39.78979961,142.78347360
99.33755658,175.69749208,111.64064986,-129.82025984,-80.44066738,-10.65496349
0.10210131,1.45587968,-0.33981322,-0.24167447,1.56631241

>  <Name>
1uui_lig

>  <RI>
0

>  <Rbt.Current_Directory>
/home/itssahil/PROJECTS/Mol_Feturizer/New_Systems/rnas/1uui

>  <Rbt.Executable>
rbdock ($Id: //depot/dev/client3/rdock/2013.1/src/exe/rbdock.cxx#4 $)

>  <Rbt.Library>
libRbt.so (2013.1, Build901 2013/11/27)

>  <Rbt.Parameter_File>
/export/apps/rDock/src/rDock_2013.1_src/data/scripts/dock_solv.prm

>  <Rbt.Receptor>
prm/pocket_docking_3.prm

>  <SCORE>
-31.2896

>  <SCORE.INTER>
-26.2777

>  <SCORE.INTER.CONST>
1

>  <SCORE.INTER.POLAR>
-3.80179

>  <SCORE.INTER.ROT>
10

>  <SCORE.INTER.SOLV>
6.39901

>  <SCORE.INTER.VDW>
-17.2455

>  <SCORE.INTER.norm>
-1.14251

>  <SCORE.INTRA>
-5.02336

>  <SCORE.INTRA.DIHEDRAL>
-7.45866

>  <SCORE.INTRA.DIHEDRAL.0>
23.4151

>  <SCORE.INTRA.POLAR>
0

>  <SCORE.INTRA.POLAR.0>
0

>  <SCORE.INTRA.REPUL>
0

>  <SCORE.INTRA.REPUL.0>
0

>  <SCORE.INTRA.SOLV>
0.0298885

>  <SCORE.INTRA.SOLV.lig_0>
-17.3568

>  <SCORE.INTRA.VDW>
-1.30897

>  <SCORE.INTRA.VDW.0>
1.0768

>  <SCORE.INTRA.norm>
-0.218407

>  <SCORE.RESTR>
0.0115426

>  <SCORE.RESTR.CAVITY>
0.0115426

>  <SCORE.RESTR.norm>
0.000501851

>  <SCORE.SYSTEM>
0

>  <SCORE.SYSTEM.CONST>
0

>  <SCORE.SYSTEM.DIHEDRAL>
0

>  <SCORE.SYSTEM.SOLV>
0

>  <SCORE.SYSTEM.norm>
0

>  <SCORE.heavy>
23

>  <SCORE.norm>
-1.36042

>  <RMSD>
5.790

$$$$
1uui_lig
 OpenBabel11021811413D
libRbt.so/2013.1/901 2013/11/27
 23 24  0  0  0  0  0  0  0  0999 V2000
   -9.6342    0.4764    1.1519 C   0  0  0  0  0  0  0  0  0  0  0  0
  -12.1749   -0.2571    2.3594 O   0  0  0  0  0  0  0  0  0  0  0  0
  -12.2358    3.5926   -1.8453 O   0  0  0  0  0  0  0  0  0  0  0  0
  -12.7528    0.3065    3.5437 C   0  0  0  0  0  0  0  0  0  0  0  0
  -12.9328    3.0589   -2.9737 C   0  0  0  0  0  0  0  0  0  0  0  0
   -8.5768    1.5364    1.2409 N   0  0  0  0  0  0  0  0  0  0  0  0
  -12.7159   -0.7357    4.6625 C   0  0  0  0  0  0  0  0  0  0  0  0
   -7.7893    1.6199   -0.0190 C   0  0  0  0  0  0  0  0  0  0  0  0
   -7.6600    1.2775    2.3824 C   0  0  0  0  0  0  0  0  0  0  0  0
  -13.3100   -0.1472    5.9461 C   0  0  0  0  0  0  0  0  0  0  0  0
   -7.0625    0.3008   -0.3315 C   0  0  0  0  0  0  0  0  0  0  0  0
   -6.9554   -0.0831    2.2468 C   0  0  0  0  0  0  0  0  0  0  0  0
  -14.7689    0.0358    5.7765 N   0  0  0  0  0  0  0  0  0  0  0  0
   -7.0270   -0.6161    0.8507 N   0  0  0  0  0  0  0  0  0  0  0  0
   -6.8039   -1.9892    0.6375 C   0  0  0  0  0  0  0  0  0  0  0  0
   -7.8475   -2.8650    0.5840 N   0  0  0  0  0  0  0  0  0  0  0  0
   -5.5370   -2.4932    0.6142 N   0  0  0  0  0  0  0  0  0  0  0  0
  -12.1881    0.7058    1.3017 C   0  0  0  0  0  0  0  0  0  0  0  0
  -10.9702    1.0964    0.6809 C   0  0  0  0  0  0  0  0  0  0  0  0
  -10.9879    2.0577   -0.3676 C   0  0  0  0  0  0  0  0  0  0  0  0
  -12.2202    2.6248   -0.7921 C   0  0  0  0  0  0  0  0  0  0  0  0
  -13.4347    2.2317   -0.1711 C   0  0  0  0  0  0  0  0  0  0  0  0
  -13.4183    1.2732    0.8761 C   0  0  0  0  0  0  0  0  0  0  0  0
  2  4  1  0  0  0  0
  3  5  1  0  0  0  0
  4  7  1  0  0  0  0
  6  1  1  0  0  0  0
  7 10  1  0  0  0  0
  8  6  1  0  0  0  0
  8 11  1  0  0  0  0
  9  6  1  0  0  0  0
 10 13  1  0  0  0  0
 11 14  1  0  0  0  0
 12  9  1  0  0  0  0
 14 12  1  0  0  0  0
 14 15  1  0  0  0  0
 15 16  1  0  0  0  0
 15 17  1  0  0  0  0
 18  2  1  0  0  0  0
 18 23  2  0  0  0  0
 19  1  1  0  0  0  0
 19 18  1  0  0  0  0
 20 19  2  0  0  0  0
 21  3  1  0  0  0  0
 21 20  1  0  0  0  0
 22 21  2  0  0  0  0
 22 23  1  0  0  0  0
M  END
>  <CHROM.1>
-179.48790342,179.14188669,-93.42095334,69.79791722,45.47728449,-97.47514787
2.46522705,11.59750147,121.64076337,-137.55972186,114.81493857,-10.37957426
0.52420175,1.26996181,0.09479232,0.37206226,-1.03820031

>  <Name>
1uui_lig

>  <RI>
0

>  <Rbt.Current_Directory>
/home/itssahil/PROJECTS/Mol_Feturizer/New_Systems/rnas/1uui

>  <Rbt.Executable>
rbdock ($Id: //depot/dev/client3/rdock/2013.1/src/exe/rbdock.cxx#4 $)

>  <Rbt.Library>
libRbt.so (2013.1, Build901 2013/11/27)

>  <Rbt.Parameter_File>
/export/apps/rDock/src/rDock_2013.1_src/data/scripts/dock_solv.prm

>  <Rbt.Receptor>
prm/pocket_docking_4.prm

>  <SCORE>
-27.3332

>  <SCORE.INTER>
-21.3527

>  <SCORE.INTER.CONST>
1

>  <SCORE.INTER.POLAR>
-3.49318

>  <SCORE.INTER.ROT>
10

>  <SCORE.INTER.SOLV>
6.91165

>  <SCORE.INTER.VDW>
-15.1618

>  <SCORE.INTER.norm>
-0.928379

>  <SCORE.INTRA>
-5.98048

>  <SCORE.INTRA.DIHEDRAL>
-8.71144

>  <SCORE.INTRA.DIHEDRAL.0>
23.4151

>  <SCORE.INTRA.POLAR>
0

>  <SCORE.INTRA.POLAR.0>
0

>  <SCORE.INTRA.REPUL>
0

>  <SCORE.INTRA.REPUL.0>
0

>  <SCORE.INTRA.SOLV>
0.0149669

>  <SCORE.INTRA.SOLV.lig_0>
-17.3568

>  <SCORE.INTRA.VDW>
-1.63224

>  <SCORE.INTRA.VDW.0>
1.0768

>  <SCORE.INTRA.norm>
-0.260021

>  <SCORE.RESTR>
0

>  <SCORE.RESTR.CAVITY>
0

>  <SCORE.RESTR.norm>
0

>  <SCORE.SYSTEM>
0

>  <SCORE.SYSTEM.CONST>
0

>  <SCORE.SYSTEM.DIHEDRAL>
0

>  <SCORE.SYSTEM.SOLV>
0

>  <SCORE.SYSTEM.norm>
0

>  <SCORE.heavy>
23

>  <SCORE.norm>
-1.1884

>  <RMSD>
5.805

$$$$
1uui_lig
 OpenBabel11021811413D
libRbt.so/2013.1/901 2013/11/27
 23 24  0  0  0  0  0  0  0  0999 V2000
   -9.3553    0.3451   -0.9477 C   0  0  0  0  0  0  0  0  0  0  0  0
   -9.9465    2.9767   -2.0325 O   0  0  0  0  0  0  0  0  0  0  0  0
  -13.8417   -1.1282   -2.7262 O   0  0  0  0  0  0  0  0  0  0  0  0
   -9.1654    3.1137   -3.2263 C   0  0  0  0  0  0  0  0  0  0  0  0
  -14.9568   -0.8812   -1.8663 C   0  0  0  0  0  0  0  0  0  0  0  0
   -8.9841    1.5031   -0.0697 N   0  0  0  0  0  0  0  0  0  0  0  0
   -8.1079    2.0094   -3.2612 C   0  0  0  0  0  0  0  0  0  0  0  0
   -7.5171    1.7519   -0.0963 C   0  0  0  0  0  0  0  0  0  0  0  0
   -9.4219    1.2688    1.3317 C   0  0  0  0  0  0  0  0  0  0  0  0
   -7.6942    1.7260   -4.7088 C   0  0  0  0  0  0  0  0  0  0  0  0
   -6.7191    0.5405    0.4151 C   0  0  0  0  0  0  0  0  0  0  0  0
   -8.7792    0.0024    1.9226 C   0  0  0  0  0  0  0  0  0  0  0  0
   -7.2393    2.9814   -5.3472 N   0  0  0  0  0  0  0  0  0  0  0  0
   -7.5877   -0.4428    1.1349 N   0  0  0  0  0  0  0  0  0  0  0  0
   -7.1358   -1.7676    1.2805 C   0  0  0  0  0  0  0  0  0  0  0  0
   -7.8071   -2.8013    0.6976 N   0  0  0  0  0  0  0  0  0  0  0  0
   -6.0983   -2.0614    2.1154 N   0  0  0  0  0  0  0  0  0  0  0  0
  -10.9240    1.9462   -2.2020 C   0  0  0  0  0  0  0  0  0  0  0  0
  -10.6791    0.6430   -1.6892 C   0  0  0  0  0  0  0  0  0  0  0  0
  -11.6523   -0.3799   -1.8641 C   0  0  0  0  0  0  0  0  0  0  0  0
  -12.8651   -0.0980   -2.5496 C   0  0  0  0  0  0  0  0  0  0  0  0
  -13.1072    1.2046   -3.0594 C   0  0  0  0  0  0  0  0  0  0  0  0
  -12.1363    2.2259   -2.8864 C   0  0  0  0  0  0  0  0  0  0  0  0
  2  4  1  0  0  0  0
  3  5  1  0  0  0  0
  4  7  1  0  0  0  0
  6  1  1  0  0  0  0
  7 10  1  0  0  0  0
  8  6  1  0  0  0  0
  8 11  1  0  0  0  0
  9  6  1  0  0  0  0
 10 13  1  0  0  0  0
 11 14  1  0  0  0  0
 12  9  1  0  0  0  0
 14 12  1  0  0  0  0
 14 15  1  0  0  0  0
 15 16  1  0  0  0  0
 15 17  1  0  0  0  0
 18  2  1  0  0  0  0
 18 23  2  0  0  0  0
 19  1  1  0  0  0  0
 19 18  1  0  0  0  0
 20 19  2  0  0  0  0
 21  3  1  0  0  0  0
 21 20  1  0  0  0  0
 22 21  2  0  0  0  0
 22 23  1  0  0  0  0
M  END
>  <CHROM.1>
-79.46631325,154.98555548,-140.83385808,55.31369709,45.49405845,-116.14919031
154.33998952,-73.66791100,98.69155923,39.93410171,107.30865429,-9.57518186
0.62632328,-1.28606277,0.71743568,0.25110948,2.25270548

>  <Name>
1uui_lig

>  <RI>
0

>  <Rbt.Current_Directory>
/home/itssahil/PROJECTS/Mol_Feturizer/New_Systems/rnas/1uui

>  <Rbt.Executable>
rbdock ($Id: //depot/dev/client3/rdock/2013.1/src/exe/rbdock.cxx#4 $)

>  <Rbt.Library>
libRbt.so (2013.1, Build901 2013/11/27)

>  <Rbt.Parameter_File>
/export/apps/rDock/src/rDock_2013.1_src/data/scripts/dock_solv.prm

>  <Rbt.Receptor>
prm/pocket_docking_7.prm

>  <SCORE>
-32.0415

>  <SCORE.INTER>
-26.213

>  <SCORE.INTER.CONST>
1

>  <SCORE.INTER.POLAR>
-3.44554

>  <SCORE.INTER.ROT>
10

>  <SCORE.INTER.SOLV>
8.2318

>  <SCORE.INTER.VDW>
-19.0008

>  <SCORE.INTER.norm>
-1.1397

>  <SCORE.INTRA>
-5.82844

>  <SCORE.INTRA.DIHEDRAL>
-3.19894

>  <SCORE.INTRA.DIHEDRAL.0>
23.4151

>  <SCORE.INTRA.POLAR>
-0.713544

>  <SCORE.INTRA.POLAR.0>
0

>  <SCORE.INTRA.REPUL>
0

>  <SCORE.INTRA.REPUL.0>
0

>  <SCORE.INTRA.SOLV>
0.418764

>  <SCORE.INTRA.SOLV.lig_0>
-17.3568

>  <SCORE.INTRA.VDW>
-2.0123

>  <SCORE.INTRA.VDW.0>
1.0768

>  <SCORE.INTRA.norm>
-0.253411

>  <SCORE.RESTR>
0

>  <SCORE.RESTR.CAVITY>
0

>  <SCORE.RESTR.norm>
0

>  <SCORE.SYSTEM>
0

>  <SCORE.SYSTEM.CONST>
0

>  <SCORE.SYSTEM.DIHEDRAL>
0

>  <SCORE.SYSTEM.SOLV>
0

>  <SCORE.SYSTEM.norm>
0

>  <SCORE.heavy>
23

>  <SCORE.norm>
-1.39311

>  <RMSD>
5.813

$$$$
1uui_lig
 OpenBabel11021811413D
libRbt.so/2013.1/901 2013/11/27
 23 24  0  0  0  0  0  0  0  0999 V2000
  -10.1032    0.2729    0.5216 C   0  0  0  0  0  0  0  0  0  0  0  0
  -11.9296   -0.2525   -1.6782 O   0  0  0  0  0  0  0  0  0  0  0  0
  -14.1755    1.0833    3.3889 O   0  0  0  0  0  0  0  0  0  0  0  0
  -12.5336    0.5397   -2.7086 C   0  0  0  0  0  0  0  0  0  0  0  0
  -14.3675   -0.1099    4.1527 C   0  0  0  0  0  0  0  0  0  0  0  0
   -9.5489    1.6330    0.2180 N   0  0  0  0  0  0  0  0  0  0  0  0
  -11.9130    1.9375   -2.6930 C   0  0  0  0  0  0  0  0  0  0  0  0
   -8.3182    1.5407   -0.6136 C   0  0  0  0  0  0  0  0  0  0  0  0
   -9.2465    2.3751    1.4704 C   0  0  0  0  0  0  0  0  0  0  0  0
  -10.4158    1.8492   -3.0055 C   0  0  0  0  0  0  0  0  0  0  0  0
   -7.2001    0.7606    0.0985 C   0  0  0  0  0  0  0  0  0  0  0  0
   -8.2188    1.6285    2.3380 C   0  0  0  0  0  0  0  0  0  0  0  0
   -9.8406    3.2119   -3.0562 N   0  0  0  0  0  0  0  0  0  0  0  0
   -7.4755    0.5895    1.5595 N   0  0  0  0  0  0  0  0  0  0  0  0
   -6.8117   -0.4354    2.2593 C   0  0  0  0  0  0  0  0  0  0  0  0
   -7.2956   -1.7100    2.2536 N   0  0  0  0  0  0  0  0  0  0  0  0
   -5.7494   -0.1523    3.0660 N   0  0  0  0  0  0  0  0  0  0  0  0
  -12.4908    0.0866   -0.4069 C   0  0  0  0  0  0  0  0  0  0  0  0
  -11.6373    0.3513    0.6989 C   0  0  0  0  0  0  0  0  0  0  0  0
  -12.2000    0.6838    1.9625 C   0  0  0  0  0  0  0  0  0  0  0  0
  -13.6114    0.7507    2.1171 C   0  0  0  0  0  0  0  0  0  0  0  0
  -14.4610    0.4871    1.0108 C   0  0  0  0  0  0  0  0  0  0  0  0
  -13.9005    0.1541   -0.2505 C   0  0  0  0  0  0  0  0  0  0  0  0
  2  4  1  0  0  0  0
  3  5  1  0  0  0  0
  4  7  1  0  0  0  0
  6  1  1  0  0  0  0
  7 10  1  0  0  0  0
  8  6  1  0  0  0  0
  8 11  1  0  0  0  0
  9  6  1  0  0  0  0
 10 13  1  0  0  0  0
 11 14  1  0  0  0  0
 12  9  1  0  0  0  0
 14 12  1  0  0  0  0
 14 15  1  0  0  0  0
 15 16  1  0  0  0  0
 15 17  1  0  0  0  0
 18  2  1  0  0  0  0
 18 23  2  0  0  0  0
 19  1  1  0  0  0  0
 19 18  1  0  0  0  0
 20 19  2  0  0  0  0
 21  3  1  0  0  0  0
 21 20  1  0  0  0  0
 22 21  2  0  0  0  0
 22 23  1  0  0  0  0
M  END
>  <CHROM.1>
78.40171240,62.60024086,-150.67373536,177.11820368,162.60473607,-84.03473554
-153.45326308,48.93856043,-131.38982459,94.39068648,-88.98429921,-10.51350836
0.76466760,0.54545797,0.19756458,0.00132497,1.85927532

>  <Name>
1uui_lig

>  <RI>
0

>  <Rbt.Current_Directory>
/home/itssahil/PROJECTS/Mol_Feturizer/New_Systems/rnas/1uui

>  <Rbt.Executable>
rbdock ($Id: //depot/dev/client3/rdock/2013.1/src/exe/rbdock.cxx#4 $)

>  <Rbt.Library>
libRbt.so (2013.1, Build901 2013/11/27)

>  <Rbt.Parameter_File>
/export/apps/rDock/src/rDock_2013.1_src/data/scripts/dock_solv.prm

>  <Rbt.Receptor>
prm/pocket_docking_4.prm

>  <SCORE>
-19.8714

>  <SCORE.INTER>
-13.3317

>  <SCORE.INTER.CONST>
1

>  <SCORE.INTER.POLAR>
-2.2056

>  <SCORE.INTER.ROT>
10

>  <SCORE.INTER.SOLV>
6.45874

>  <SCORE.INTER.VDW>
-13.9554

>  <SCORE.INTER.norm>
-0.579641

>  <SCORE.INTRA>
-6.53966

>  <SCORE.INTRA.DIHEDRAL>
-7.73175

>  <SCORE.INTRA.DIHEDRAL.0>
23.4151

>  <SCORE.INTRA.POLAR>
0

>  <SCORE.INTRA.POLAR.0>
0

>  <SCORE.INTRA.REPUL>
0

>  <SCORE.INTRA.REPUL.0>
0

>  <SCORE.INTRA.SOLV>
0.508987

>  <SCORE.INTRA.SOLV.lig_0>
-17.3568

>  <SCORE.INTRA.VDW>
-2.92828

>  <SCORE.INTRA.VDW.0>
1.0768

>  <SCORE.INTRA.norm>
-0.284333

>  <SCORE.RESTR>
0

>  <SCORE.RESTR.CAVITY>
0

>  <SCORE.RESTR.norm>
0

>  <SCORE.SYSTEM>
0

>  <SCORE.SYSTEM.CONST>
0

>  <SCORE.SYSTEM.DIHEDRAL>
0

>  <SCORE.SYSTEM.SOLV>
0

>  <SCORE.SYSTEM.norm>
0

>  <SCORE.heavy>
23

>  <SCORE.norm>
-0.863974

>  <RMSD>
5.824

$$$$
1uui_lig
 OpenBabel11021811413D
libRbt.so/2013.1/901 2013/11/27
 23 24  0  0  0  0  0  0  0  0999 V2000
   -9.9053    0.9471    1.2610 C   0  0  0  0  0  0  0  0  0  0  0  0
  -11.5845    0.8399    3.6317 O   0  0  0  0  0  0  0  0  0  0  0  0
  -10.1408    5.9749    1.6187 O   0  0  0  0  0  0  0  0  0  0  0  0
  -12.9680    0.5765    3.3658 C   0  0  0  0  0  0  0  0  0  0  0  0
  -11.1035    6.3986    0.6504 C   0  0  0  0  0  0  0  0  0  0  0  0
   -9.6052    1.2340   -0.1802 N   0  0  0  0  0  0  0  0  0  0  0  0
  -13.3858   -0.6952    4.1058 C   0  0  0  0  0  0  0  0  0  0  0  0
   -9.7614    0.0135   -1.0172 C   0  0  0  0  0  0  0  0  0  0  0  0
   -8.2281    1.7713   -0.3393 C   0  0  0  0  0  0  0  0  0  0  0  0
  -13.5039   -0.4127    5.6069 C   0  0  0  0  0  0  0  0  0  0  0  0
   -8.8013   -1.1075   -0.5842 C   0  0  0  0  0  0  0  0  0  0  0  0
   -7.1698    0.7810    0.1760 C   0  0  0  0  0  0  0  0  0  0  0  0
  -12.1516   -0.3449    6.2046 N   0  0  0  0  0  0  0  0  0  0  0  0
   -7.7178   -0.6039    0.3169 N   0  0  0  0  0  0  0  0  0  0  0  0
   -7.0349   -1.5227    1.1355 C   0  0  0  0  0  0  0  0  0  0  0  0
   -6.0980   -2.3623    0.6101 N   0  0  0  0  0  0  0  0  0  0  0  0
   -7.3885   -1.6874    2.4422 N   0  0  0  0  0  0  0  0  0  0  0  0
  -11.2242    2.1272    3.1225 C   0  0  0  0  0  0  0  0  0  0  0  0
  -10.4039    2.2299    1.9659 C   0  0  0  0  0  0  0  0  0  0  0  0
  -10.0444    3.5123    1.4658 C   0  0  0  0  0  0  0  0  0  0  0  0
  -10.5048    4.6863    2.1218 C   0  0  0  0  0  0  0  0  0  0  0  0
  -11.3247    4.5804    3.2759 C   0  0  0  0  0  0  0  0  0  0  0  0
  -11.6832    3.3011    3.7765 C   0  0  0  0  0  0  0  0  0  0  0  0
  2  4  1  0  0  0  0
  3  5  1  0  0  0  0
  4  7  1  0  0  0  0
  6  1  1  0  0  0  0
  7 10  1  0  0  0  0
  8  6  1  0  0  0  0
  8 11  1  0  0  0  0
  9  6  1  0  0  0  0
 10 13  1  0  0  0  0
 11 14  1  0  0  0  0
 12  9  1  0  0  0  0
 14 12  1  0  0  0  0
 14 15  1  0  0  0  0
 15 16  1  0  0  0  0
 15 17  1  0  0  0  0
 18  2  1  0  0  0  0
 18 23  2  0  0  0  0
 19  1  1  0  0  0  0
 19 18  1  0  0  0  0
 20 19  2  0  0  0  0
 21  3  1  0  0  0  0
 21 20  1  0  0  0  0
 22 21  2  0  0  0  0
 22 23  1  0  0  0  0
M  END
>  <CHROM.1>
-171.13515940,73.45509574,-152.78475885,-76.52670958,-68.86217201,75.53027687
-77.60906352,-177.15576787,-107.74756399,155.27757177,88.85039128,-10.05179212
1.25358084,1.96465661,-0.40433009,0.76053772,-0.33954128

>  <Name>
1uui_lig

>  <RI>
0

>  <Rbt.Current_Directory>
/home/itssahil/PROJECTS/Mol_Feturizer/New_Systems/rnas/1uui

>  <Rbt.Executable>
rbdock ($Id: //depot/dev/client3/rdock/2013.1/src/exe/rbdock.cxx#4 $)

>  <Rbt.Library>
libRbt.so (2013.1, Build901 2013/11/27)

>  <Rbt.Parameter_File>
/export/apps/rDock/src/rDock_2013.1_src/data/scripts/dock_solv.prm

>  <Rbt.Receptor>
prm/pocket_docking_5.prm

>  <SCORE>
-29.5504

>  <SCORE.INTER>
-21.9467

>  <SCORE.INTER.CONST>
1

>  <SCORE.INTER.POLAR>
-3.8556

>  <SCORE.INTER.ROT>
10

>  <SCORE.INTER.SOLV>
7.72925

>  <SCORE.INTER.VDW>
-14.6222

>  <SCORE.INTER.norm>
-0.954205

>  <SCORE.INTRA>
-7.6037

>  <SCORE.INTRA.DIHEDRAL>
-6.19714

>  <SCORE.INTRA.DIHEDRAL.0>
23.4151

>  <SCORE.INTRA.POLAR>
-0.63901

>  <SCORE.INTRA.POLAR.0>
0

>  <SCORE.INTRA.REPUL>
0

>  <SCORE.INTRA.REPUL.0>
0

>  <SCORE.INTRA.SOLV>
0.423275

>  <SCORE.INTRA.SOLV.lig_0>
-17.3568

>  <SCORE.INTRA.VDW>
-2.54413

>  <SCORE.INTRA.VDW.0>
1.0768

>  <SCORE.INTRA.norm>
-0.330596

>  <SCORE.RESTR>
0

>  <SCORE.RESTR.CAVITY>
0

>  <SCORE.RESTR.norm>
0

>  <SCORE.SYSTEM>
0

>  <SCORE.SYSTEM.CONST>
0

>  <SCORE.SYSTEM.DIHEDRAL>
0

>  <SCORE.SYSTEM.SOLV>
0

>  <SCORE.SYSTEM.norm>
0

>  <SCORE.heavy>
23

>  <SCORE.norm>
-1.2848

>  <RMSD>
5.828

$$$$
1uui_lig
 OpenBabel11021811413D
libRbt.so/2013.1/901 2013/11/27
 23 24  0  0  0  0  0  0  0  0999 V2000
   -9.6287    0.0356    1.4368 C   0  0  0  0  0  0  0  0  0  0  0  0
  -12.1650   -1.0717    2.3270 O   0  0  0  0  0  0  0  0  0  0  0  0
  -12.2014    2.3284   -2.2492 O   0  0  0  0  0  0  0  0  0  0  0  0
  -13.2442   -0.7212    3.2024 C   0  0  0  0  0  0  0  0  0  0  0  0
  -11.8761    1.5673   -3.4150 C   0  0  0  0  0  0  0  0  0  0  0  0
   -8.7418    1.2451    1.4284 N   0  0  0  0  0  0  0  0  0  0  0  0
  -12.8294    0.4823    4.0502 C   0  0  0  0  0  0  0  0  0  0  0  0
   -8.1797    1.4924    0.0728 C   0  0  0  0  0  0  0  0  0  0  0  0
   -7.6315    1.0963    2.4059 C   0  0  0  0  0  0  0  0  0  0  0  0
  -13.9679    0.8724    4.9982 C   0  0  0  0  0  0  0  0  0  0  0  0
   -7.3199    0.3147   -0.4169 C   0  0  0  0  0  0  0  0  0  0  0  0
   -6.7598   -0.1316    2.0918 C   0  0  0  0  0  0  0  0  0  0  0  0
  -14.2487   -0.2502    5.9210 N   0  0  0  0  0  0  0  0  0  0  0  0
   -6.9649   -0.6234    0.6938 N   0  0  0  0  0  0  0  0  0  0  0  0
   -6.5736   -1.9366    0.3734 C   0  0  0  0  0  0  0  0  0  0  0  0
   -6.1826   -2.2583   -0.8925 N   0  0  0  0  0  0  0  0  0  0  0  0
   -6.7043   -2.9436    1.2837 N   0  0  0  0  0  0  0  0  0  0  0  0
  -12.1711   -0.2215    1.1767 C   0  0  0  0  0  0  0  0  0  0  0  0
  -10.9553    0.3441    0.7044 C   0  0  0  0  0  0  0  0  0  0  0  0
  -10.9669    1.1927   -0.4373 C   0  0  0  0  0  0  0  0  0  0  0  0
  -12.1913    1.4733   -1.1025 C   0  0  0  0  0  0  0  0  0  0  0  0
  -13.4035    0.9061   -0.6293 C   0  0  0  0  0  0  0  0  0  0  0  0
  -13.3933    0.0599    0.5107 C   0  0  0  0  0  0  0  0  0  0  0  0
  2  4  1  0  0  0  0
  3  5  1  0  0  0  0
  4  7  1  0  0  0  0
  6  1  1  0  0  0  0
  7 10  1  0  0  0  0
  8  6  1  0  0  0  0
  8 11  1  0  0  0  0
  9  6  1  0  0  0  0
 10 13  1  0  0  0  0
 11 14  1  0  0  0  0
 12  9  1  0  0  0  0
 14 12  1  0  0  0  0
 14 15  1  0  0  0  0
 15 16  1  0  0  0  0
 15 17  1  0  0  0  0
 18  2  1  0  0  0  0
 18 23  2  0  0  0  0
 19  1  1  0  0  0  0
 19 18  1  0  0  0  0
 20 19  2  0  0  0  0
 21  3  1  0  0  0  0
 21 20  1  0  0  0  0
 22 21  2  0  0  0  0
 22 23  1  0  0  0  0
M  END
>  <CHROM.1>
-81.39822231,-179.81918125,-72.36183932,61.93622320,51.24463401,17.12961107
-100.18303941,-20.65308140,135.30281103,-143.79466812,83.94781511,-10.33743198
0.10883277,1.06336738,-0.32615185,-0.28884677,1.87947111

>  <Name>
1uui_lig

>  <RI>
0

>  <Rbt.Current_Directory>
/home/itssahil/PROJECTS/Mol_Feturizer/New_Systems/rnas/1uui

>  <Rbt.Executable>
rbdock ($Id: //depot/dev/client3/rdock/2013.1/src/exe/rbdock.cxx#4 $)

>  <Rbt.Library>
libRbt.so (2013.1, Build901 2013/11/27)

>  <Rbt.Parameter_File>
/export/apps/rDock/src/rDock_2013.1_src/data/scripts/dock_solv.prm

>  <Rbt.Receptor>
prm/pocket_docking_4.prm

>  <SCORE>
-28.7578

>  <SCORE.INTER>
-25.219

>  <SCORE.INTER.CONST>
1

>  <SCORE.INTER.POLAR>
-3.57561

>  <SCORE.INTER.ROT>
10

>  <SCORE.INTER.SOLV>
7.16331

>  <SCORE.INTER.VDW>
-17.5484

>  <SCORE.INTER.norm>
-1.09648

>  <SCORE.INTRA>
-3.53882

>  <SCORE.INTRA.DIHEDRAL>
-9.43264

>  <SCORE.INTRA.DIHEDRAL.0>
23.4151

>  <SCORE.INTRA.POLAR>
0

>  <SCORE.INTRA.POLAR.0>
0

>  <SCORE.INTRA.REPUL>
0

>  <SCORE.INTRA.REPUL.0>
0

>  <SCORE.INTRA.SOLV>
0.0719053

>  <SCORE.INTRA.SOLV.lig_0>
-17.3568

>  <SCORE.INTRA.VDW>
1.14154

>  <SCORE.INTRA.VDW.0>
1.0768

>  <SCORE.INTRA.norm>
-0.153862

>  <SCORE.RESTR>
0

>  <SCORE.RESTR.CAVITY>
0

>  <SCORE.RESTR.norm>
0

>  <SCORE.SYSTEM>
0

>  <SCORE.SYSTEM.CONST>
0

>  <SCORE.SYSTEM.DIHEDRAL>
0

>  <SCORE.SYSTEM.SOLV>
0

>  <SCORE.SYSTEM.norm>
0

>  <SCORE.heavy>
23

>  <SCORE.norm>
-1.25034

>  <RMSD>
5.860

$$$$
1uui_lig
 OpenBabel11021811413D
libRbt.so/2013.1/901 2013/11/27
 23 24  0  0  0  0  0  0  0  0999 V2000
  -12.9813    1.5224   -0.3154 C   0  0  0  0  0  0  0  0  0  0  0  0
  -10.7912   -0.0877    0.7154 O   0  0  0  0  0  0  0  0  0  0  0  0
  -15.7180   -0.1416    3.5837 O   0  0  0  0  0  0  0  0  0  0  0  0
   -9.7192    0.2719    1.5961 C   0  0  0  0  0  0  0  0  0  0  0  0
  -15.6011    0.6857    4.7439 C   0  0  0  0  0  0  0  0  0  0  0  0
  -12.9990    0.6393   -1.5276 N   0  0  0  0  0  0  0  0  0  0  0  0
   -8.5127   -0.6222    1.3059 C   0  0  0  0  0  0  0  0  0  0  0  0
  -11.6188    0.2872   -1.9587 C   0  0  0  0  0  0  0  0  0  0  0  0
  -13.7174    1.2950   -2.6521 C   0  0  0  0  0  0  0  0  0  0  0  0
   -7.3562   -0.2616    2.2436 C   0  0  0  0  0  0  0  0  0  0  0  0
  -10.7986    1.5327   -2.3354 C   0  0  0  0  0  0  0  0  0  0  0  0
  -13.0574    2.6271   -3.0470 C   0  0  0  0  0  0  0  0  0  0  0  0
   -6.4178   -1.4027    2.3319 N   0  0  0  0  0  0  0  0  0  0  0  0
  -11.6622    2.7411   -2.5192 N   0  0  0  0  0  0  0  0  0  0  0  0
  -11.0718    4.0157   -2.4347 C   0  0  0  0  0  0  0  0  0  0  0  0
  -11.6868    5.0252   -1.7552 N   0  0  0  0  0  0  0  0  0  0  0  0
   -9.9420    4.3078   -3.1403 N   0  0  0  0  0  0  0  0  0  0  0  0
  -12.0295   -0.1026    1.4313 C   0  0  0  0  0  0  0  0  0  0  0  0
  -13.1289    0.6694    0.9659 C   0  0  0  0  0  0  0  0  0  0  0  0
  -14.3571    0.6548    1.6837 C   0  0  0  0  0  0  0  0  0  0  0  0
  -14.4829   -0.1297    2.8623 C   0  0  0  0  0  0  0  0  0  0  0  0
  -13.3837   -0.9005    3.3237 C   0  0  0  0  0  0  0  0  0  0  0  0
  -12.1572   -0.8859    2.6088 C   0  0  0  0  0  0  0  0  0  0  0  0
  2  4  1  0  0  0  0
  3  5  1  0  0  0  0
  4  7  1  0  0  0  0
  6  1  1  0  0  0  0
  7 10  1  0  0  0  0
  8  6  1  0  0  0  0
  8 11  1  0  0  0  0
  9  6  1  0  0  0  0
 10 13  1  0  0  0  0
 11 14  1  0  0  0  0
 12  9  1  0  0  0  0
 14 12  1  0  0  0  0
 14 15  1  0  0  0  0
 15 16  1  0  0  0  0
 15 17  1  0  0  0  0
 18  2  1  0  0  0  0
 18 23  2  0  0  0  0
 19  1  1  0  0  0  0
 19 18  1  0  0  0  0
 20 19  2  0  0  0  0
 21  3  1  0  0  0  0
 21 20  1  0  0  0  0
 22 21  2  0  0  0  0
 22 23  1  0  0  0  0
M  END
>  <CHROM.1>
137.99348964,-179.61203666,-94.80835884,158.71590341,170.83374779,-136.96994377
-142.72656134,44.35893775,125.45942587,74.55860931,-102.69819014,-11.80889635
0.96993358,0.31226013,1.32468062,0.15620738,-0.98853835

>  <Name>
1uui_lig

>  <RI>
0

>  <Rbt.Current_Directory>
/home/itssahil/PROJECTS/Mol_Feturizer/New_Systems/rnas/1uui

>  <Rbt.Executable>
rbdock ($Id: //depot/dev/client3/rdock/2013.1/src/exe/rbdock.cxx#4 $)

>  <Rbt.Library>
libRbt.so (2013.1, Build901 2013/11/27)

>  <Rbt.Parameter_File>
/export/apps/rDock/src/rDock_2013.1_src/data/scripts/dock_solv.prm

>  <Rbt.Receptor>
prm/pocket_docking_3.prm

>  <SCORE>
-15.9109

>  <SCORE.INTER>
-13.0522

>  <SCORE.INTER.CONST>
1

>  <SCORE.INTER.POLAR>
-1.8797

>  <SCORE.INTER.ROT>
10

>  <SCORE.INTER.SOLV>
5.3304

>  <SCORE.INTER.VDW>
-14.4793

>  <SCORE.INTER.norm>
-0.567488

>  <SCORE.INTRA>
-2.86803

>  <SCORE.INTRA.DIHEDRAL>
-1.49036

>  <SCORE.INTRA.DIHEDRAL.0>
23.4151

>  <SCORE.INTRA.POLAR>
0

>  <SCORE.INTRA.POLAR.0>
0

>  <SCORE.INTRA.REPUL>
0.00124863

>  <SCORE.INTRA.REPUL.0>
0

>  <SCORE.INTRA.SOLV>
0.170865

>  <SCORE.INTRA.SOLV.lig_0>
-17.3568

>  <SCORE.INTRA.VDW>
-2.21452

>  <SCORE.INTRA.VDW.0>
1.0768

>  <SCORE.INTRA.norm>
-0.124697

>  <SCORE.RESTR>
0.0093734

>  <SCORE.RESTR.CAVITY>
0.0093734

>  <SCORE.RESTR.norm>
0.000407539

>  <SCORE.SYSTEM>
0

>  <SCORE.SYSTEM.CONST>
0

>  <SCORE.SYSTEM.DIHEDRAL>
0

>  <SCORE.SYSTEM.SOLV>
0

>  <SCORE.SYSTEM.norm>
0

>  <SCORE.heavy>
23

>  <SCORE.norm>
-0.691778

>  <RMSD>
5.866

$$$$
1uui_lig
 OpenBabel11021811413D
libRbt.so/2013.1/901 2013/11/27
 23 24  0  0  0  0  0  0  0  0999 V2000
  -13.0637    0.5735   -0.1281 C   0  0  0  0  0  0  0  0  0  0  0  0
  -10.3052    1.0653    0.6466 O   0  0  0  0  0  0  0  0  0  0  0  0
  -14.3421    1.6913    4.6235 O   0  0  0  0  0  0  0  0  0  0  0  0
   -9.4313   -0.0153    0.9966 C   0  0  0  0  0  0  0  0  0  0  0  0
  -14.2120    0.6599    5.6050 C   0  0  0  0  0  0  0  0  0  0  0  0
  -14.3849    1.1745   -0.5057 N   0  0  0  0  0  0  0  0  0  0  0  0
   -8.3127   -0.1099   -0.0421 C   0  0  0  0  0  0  0  0  0  0  0  0
  -15.0086    0.4381   -1.6386 C   0  0  0  0  0  0  0  0  0  0  0  0
  -14.2317    2.6077   -0.8705 C   0  0  0  0  0  0  0  0  0  0  0  0
   -7.2525   -1.1147    0.4201 C   0  0  0  0  0  0  0  0  0  0  0  0
  -14.1320    0.4771   -2.9019 C   0  0  0  0  0  0  0  0  0  0  0  0
  -13.2719    2.7912   -2.0584 C   0  0  0  0  0  0  0  0  0  0  0  0
   -7.8060   -2.4854    0.3469 N   0  0  0  0  0  0  0  0  0  0  0  0
  -13.0583    1.5155   -2.8104 N   0  0  0  0  0  0  0  0  0  0  0  0
  -11.9328    1.4030   -3.6477 C   0  0  0  0  0  0  0  0  0  0  0  0
  -12.0721    1.3816   -5.0038 N   0  0  0  0  0  0  0  0  0  0  0  0
  -10.6945    1.1779   -3.1228 N   0  0  0  0  0  0  0  0  0  0  0  0
  -11.3194    1.2180    1.6438 C   0  0  0  0  0  0  0  0  0  0  0  0
  -12.6827    0.9890    1.3118 C   0  0  0  0  0  0  0  0  0  0  0  0
  -13.6883    1.1465    2.3057 C   0  0  0  0  0  0  0  0  0  0  0  0
  -13.3294    1.5317    3.6260 C   0  0  0  0  0  0  0  0  0  0  0  0
  -11.9671    1.7584    3.9547 C   0  0  0  0  0  0  0  0  0  0  0  0
  -10.9627    1.6026    2.9633 C   0  0  0  0  0  0  0  0  0  0  0  0
  2  4  1  0  0  0  0
  3  5  1  0  0  0  0
  4  7  1  0  0  0  0
  6  1  1  0  0  0  0
  7 10  1  0  0  0  0
  8  6  1  0  0  0  0
  8 11  1  0  0  0  0
  9  6  1  0  0  0  0
 10 13  1  0  0  0  0
 11 14  1  0  0  0  0
 12  9  1  0  0  0  0
 14 12  1  0  0  0  0
 14 15  1  0  0  0  0
 15 16  1  0  0  0  0
 15 17  1  0  0  0  0
 18  2  1  0  0  0  0
 18 23  2  0  0  0  0
 19  1  1  0  0  0  0
 19 18  1  0  0  0  0
 20 19  2  0  0  0  0
 21  3  1  0  0  0  0
 21 20  1  0  0  0  0
 22 21  2  0  0  0  0
 22 23  1  0  0  0  0
M  END
>  <CHROM.1>
-176.92569549,171.51591604,-159.63094609,70.43269516,-44.87574756,58.68196711
-27.08307449,32.17917854,-115.39910105,-145.07076765,111.43421857,-12.02546331
0.89544710,0.19006075,1.43811367,0.37354302,-1.53556445

>  <Name>
1uui_lig

>  <RI>
0

>  <Rbt.Current_Directory>
/home/itssahil/PROJECTS/Mol_Feturizer/New_Systems/rnas/1uui

>  <Rbt.Executable>
rbdock ($Id: //depot/dev/client3/rdock/2013.1/src/exe/rbdock.cxx#4 $)

>  <Rbt.Library>
libRbt.so (2013.1, Build901 2013/11/27)

>  <Rbt.Parameter_File>
/export/apps/rDock/src/rDock_2013.1_src/data/scripts/dock_solv.prm

>  <Rbt.Receptor>
prm/pocket_docking_4.prm

>  <SCORE>
-28.8428

>  <SCORE.INTER>
-23.1422

>  <SCORE.INTER.CONST>
1

>  <SCORE.INTER.POLAR>
-3.58018

>  <SCORE.INTER.ROT>
10

>  <SCORE.INTER.SOLV>
8.04771

>  <SCORE.INTER.VDW>
-16.4434

>  <SCORE.INTER.norm>
-1.00618

>  <SCORE.INTRA>
-6.10304

>  <SCORE.INTRA.DIHEDRAL>
-8.88097

>  <SCORE.INTRA.DIHEDRAL.0>
23.4151

>  <SCORE.INTRA.POLAR>
0

>  <SCORE.INTRA.POLAR.0>
0

>  <SCORE.INTRA.REPUL>
0.00306069

>  <SCORE.INTRA.REPUL.0>
0

>  <SCORE.INTRA.SOLV>
0.331302

>  <SCORE.INTRA.SOLV.lig_0>
-17.3568

>  <SCORE.INTRA.VDW>
-1.84351

>  <SCORE.INTRA.VDW.0>
1.0768

>  <SCORE.INTRA.norm>
-0.265349

>  <SCORE.RESTR>
0.40242

>  <SCORE.RESTR.CAVITY>
0.40242

>  <SCORE.RESTR.norm>
0.0174965

>  <SCORE.SYSTEM>
0

>  <SCORE.SYSTEM.CONST>
0

>  <SCORE.SYSTEM.DIHEDRAL>
0

>  <SCORE.SYSTEM.SOLV>
0

>  <SCORE.SYSTEM.norm>
0

>  <SCORE.heavy>
23

>  <SCORE.norm>
-1.25404

>  <RMSD>
5.879

$$$$
1uui_lig
 OpenBabel11021811413D
libRbt.so/2013.1/901 2013/11/27
 23 24  0  0  0  0  0  0  0  0999 V2000
  -15.4471    0.3692    1.5831 C   0  0  0  0  0  0  0  0  0  0  0  0
  -15.1919   -2.3145    0.4952 O   0  0  0  0  0  0  0  0  0  0  0  0
  -15.0663    2.0634   -3.1547 O   0  0  0  0  0  0  0  0  0  0  0  0
  -16.4020   -3.0616    0.3178 C   0  0  0  0  0  0  0  0  0  0  0  0
  -13.7811    2.6882   -3.1105 C   0  0  0  0  0  0  0  0  0  0  0  0
  -14.1044    0.4249    2.2490 N   0  0  0  0  0  0  0  0  0  0  0  0
  -16.3841   -4.2715    1.2533 C   0  0  0  0  0  0  0  0  0  0  0  0
  -13.7957   -0.8519    2.9483 C   0  0  0  0  0  0  0  0  0  0  0  0
  -14.0388    1.5499    3.2189 C   0  0  0  0  0  0  0  0  0  0  0  0
  -16.3112   -3.8054    2.7108 C   0  0  0  0  0  0  0  0  0  0  0  0
  -14.8199   -1.1652    4.0523 C   0  0  0  0  0  0  0  0  0  0  0  0
  -15.1064    1.4143    4.3179 C   0  0  0  0  0  0  0  0  0  0  0  0
  -16.7450   -4.9038    3.6029 N   0  0  0  0  0  0  0  0  0  0  0  0
  -15.6579    0.0258    4.3973 N   0  0  0  0  0  0  0  0  0  0  0  0
  -16.8919   -0.1772    5.0426 C   0  0  0  0  0  0  0  0  0  0  0  0
  -18.0660   -0.0177    4.3680 N   0  0  0  0  0  0  0  0  0  0  0  0
  -16.9457   -0.4053    6.3860 N   0  0  0  0  0  0  0  0  0  0  0  0
  -15.1568   -1.2143   -0.4183 C   0  0  0  0  0  0  0  0  0  0  0  0
  -15.2785    0.1165    0.0669 C   0  0  0  0  0  0  0  0  0  0  0  0
  -15.2476    1.2072   -0.8459 C   0  0  0  0  0  0  0  0  0  0  0  0
  -15.0954    0.9655   -2.2383 C   0  0  0  0  0  0  0  0  0  0  0  0
  -14.9728   -0.3644   -2.7195 C   0  0  0  0  0  0  0  0  0  0  0  0
  -15.0046   -1.4538   -1.8097 C   0  0  0  0  0  0  0  0  0  0  0  0
  2  4  1  0  0  0  0
  3  5  1  0  0  0  0
  4  7  1  0  0  0  0
  6  1  1  0  0  0  0
  7 10  1  0  0  0  0
  8  6  1  0  0  0  0
  8 11  1  0  0  0  0
  9  6  1  0  0  0  0
 10 13  1  0  0  0  0
 11 14  1  0  0  0  0
 12  9  1  0  0  0  0
 14 12  1  0  0  0  0
 14 15  1  0  0  0  0
 15 16  1  0  0  0  0
 15 17  1  0  0  0  0
 18  2  1  0  0  0  0
 18 23  2  0  0  0  0
 19  1  1  0  0  0  0
 19 18  1  0  0  0  0
 20 19  2  0  0  0  0
 21  3  1  0  0  0  0
 21 20  1  0  0  0  0
 22 21  2  0  0  0  0
 22 23  1  0  0  0  0
M  END
>  <CHROM.1>
177.12574081,61.17144009,-101.41705918,161.12479318,31.89518282,-106.57073557
42.12724346,-145.79286285,110.62479012,85.68919023,77.62808139,-15.48649391
-0.60670033,1.50813939,-0.66723019,1.28575239,1.02663957

>  <Name>
1uui_lig

>  <RI>
0

>  <Rbt.Current_Directory>
/home/itssahil/PROJECTS/Mol_Feturizer/New_Systems/rnas/1uui

>  <Rbt.Executable>
rbdock ($Id: //depot/dev/client3/rdock/2013.1/src/exe/rbdock.cxx#4 $)

>  <Rbt.Library>
libRbt.so (2013.1, Build901 2013/11/27)

>  <Rbt.Parameter_File>
/export/apps/rDock/src/rDock_2013.1_src/data/scripts/dock_solv.prm

>  <Rbt.Receptor>
prm/pocket_docking_6.prm

>  <SCORE>
-27.2264

>  <SCORE.INTER>
-21.5932

>  <SCORE.INTER.CONST>
1

>  <SCORE.INTER.POLAR>
-3.33855

>  <SCORE.INTER.ROT>
10

>  <SCORE.INTER.SOLV>
4.58021

>  <SCORE.INTER.VDW>
-15.0604

>  <SCORE.INTER.norm>
-0.938837

>  <SCORE.INTRA>
-5.63311

>  <SCORE.INTRA.DIHEDRAL>
-4.61934

>  <SCORE.INTRA.DIHEDRAL.0>
23.4151

>  <SCORE.INTRA.POLAR>
0

>  <SCORE.INTRA.POLAR.0>
0

>  <SCORE.INTRA.REPUL>
0

>  <SCORE.INTRA.REPUL.0>
0

>  <SCORE.INTRA.SOLV>
0.327071

>  <SCORE.INTRA.SOLV.lig_0>
-17.3568

>  <SCORE.INTRA.VDW>
-3.48697

>  <SCORE.INTRA.VDW.0>
1.0768

>  <SCORE.INTRA.norm>
-0.244918

>  <SCORE.RESTR>
0

>  <SCORE.RESTR.CAVITY>
0

>  <SCORE.RESTR.norm>
0

>  <SCORE.SYSTEM>
0

>  <SCORE.SYSTEM.CONST>
0

>  <SCORE.SYSTEM.DIHEDRAL>
0

>  <SCORE.SYSTEM.SOLV>
0

>  <SCORE.SYSTEM.norm>
0

>  <SCORE.heavy>
23

>  <SCORE.norm>
-1.18375

>  <RMSD>
5.880

$$$$
1uui_lig
 OpenBabel11021811413D
libRbt.so/2013.1/901 2013/11/27
 23 24  0  0  0  0  0  0  0  0999 V2000
  -11.5626    1.3681   -0.4488 C   0  0  0  0  0  0  0  0  0  0  0  0
   -9.3864    1.1446    1.4658 O   0  0  0  0  0  0  0  0  0  0  0  0
  -14.4114    3.0637    3.3554 O   0  0  0  0  0  0  0  0  0  0  0  0
   -9.3326   -0.2840    1.5672 C   0  0  0  0  0  0  0  0  0  0  0  0
  -14.3889    4.4926    3.3966 C   0  0  0  0  0  0  0  0  0  0  0  0
  -10.3528    2.0517   -1.0132 N   0  0  0  0  0  0  0  0  0  0  0  0
   -7.8744   -0.7367    1.4789 C   0  0  0  0  0  0  0  0  0  0  0  0
  -10.4499    3.5294   -0.8652 C   0  0  0  0  0  0  0  0  0  0  0  0
  -10.1696    1.7081   -2.4481 C   0  0  0  0  0  0  0  0  0  0  0  0
   -7.2710   -0.3013    0.1397 C   0  0  0  0  0  0  0  0  0  0  0  0
  -11.6661    4.1034   -1.6117 C   0  0  0  0  0  0  0  0  0  0  0  0
  -11.3860    2.1269   -3.2914 C   0  0  0  0  0  0  0  0  0  0  0  0
   -8.0675   -0.8719   -0.9696 N   0  0  0  0  0  0  0  0  0  0  0  0
  -12.2478    3.1211   -2.5794 N   0  0  0  0  0  0  0  0  0  0  0  0
  -13.5748    3.3003   -3.0124 C   0  0  0  0  0  0  0  0  0  0  0  0
  -14.6055    3.2991   -2.1199 N   0  0  0  0  0  0  0  0  0  0  0  0
  -13.8731    3.3442   -4.3423 N   0  0  0  0  0  0  0  0  0  0  0  0
  -10.6492    1.6222    1.9384 C   0  0  0  0  0  0  0  0  0  0  0  0
  -11.7429    1.7492    1.0390 C   0  0  0  0  0  0  0  0  0  0  0  0
  -12.9956    2.2289    1.5127 C   0  0  0  0  0  0  0  0  0  0  0  0
  -13.1516    2.5797    2.8812 C   0  0  0  0  0  0  0  0  0  0  0  0
  -12.0580    2.4507    3.7771 C   0  0  0  0  0  0  0  0  0  0  0  0
  -10.8070    1.9730    3.3053 C   0  0  0  0  0  0  0  0  0  0  0  0
  2  4  1  0  0  0  0
  3  5  1  0  0  0  0
  4  7  1  0  0  0  0
  6  1  1  0  0  0  0
  7 10  1  0  0  0  0
  8  6  1  0  0  0  0
  8 11  1  0  0  0  0
  9  6  1  0  0  0  0
 10 13  1  0  0  0  0
 11 14  1  0  0  0  0
 12  9  1  0  0  0  0
 14 12  1  0  0  0  0
 14 15  1  0  0  0  0
 15 16  1  0  0  0  0
 15 17  1  0  0  0  0
 18  2  1  0  0  0  0
 18 23  2  0  0  0  0
 19  1  1  0  0  0  0
 19 18  1  0  0  0  0
 20 19  2  0  0  0  0
 21  3  1  0  0  0  0
 21 20  1  0  0  0  0
 22 21  2  0  0  0  0
 22 23  1  0  0  0  0
M  END
>  <CHROM.1>
-162.68402210,-60.14828708,-57.31815758,-57.97765335,-179.27674670,-60.11205743
-13.99269965,-63.32931588,-89.39430064,-51.01729445,-97.46258388,-11.39044867
2.03671076,0.06890492,-2.62036400,-0.57537323,1.63947216

>  <Name>
1uui_lig

>  <RI>
0

>  <Rbt.Current_Directory>
/home/itssahil/PROJECTS/Mol_Feturizer/New_Systems/rnas/1uui

>  <Rbt.Executable>
rbdock ($Id: //depot/dev/client3/rdock/2013.1/src/exe/rbdock.cxx#4 $)

>  <Rbt.Library>
libRbt.so (2013.1, Build901 2013/11/27)

>  <Rbt.Parameter_File>
/export/apps/rDock/src/rDock_2013.1_src/data/scripts/dock_solv.prm

>  <Rbt.Receptor>
prm/pocket_docking_4.prm

>  <SCORE>
-18.6017

>  <SCORE.INTER>
-9.61429

>  <SCORE.INTER.CONST>
1

>  <SCORE.INTER.POLAR>
-2.58226

>  <SCORE.INTER.ROT>
10

>  <SCORE.INTER.SOLV>
4.68084

>  <SCORE.INTER.VDW>
-9.62894

>  <SCORE.INTER.norm>
-0.418013

>  <SCORE.INTRA>
-9.06325

>  <SCORE.INTRA.DIHEDRAL>
-8.13787

>  <SCORE.INTRA.DIHEDRAL.0>
23.4151

>  <SCORE.INTRA.POLAR>
-0.522596

>  <SCORE.INTRA.POLAR.0>
0

>  <SCORE.INTRA.REPUL>
0

>  <SCORE.INTRA.REPUL.0>
0

>  <SCORE.INTRA.SOLV>
1.132

>  <SCORE.INTRA.SOLV.lig_0>
-17.3568

>  <SCORE.INTRA.VDW>
-3.78348

>  <SCORE.INTRA.VDW.0>
1.0768

>  <SCORE.INTRA.norm>
-0.394054

>  <SCORE.RESTR>
0.0758807

>  <SCORE.RESTR.CAVITY>
0.0758807

>  <SCORE.RESTR.norm>
0.00329916

>  <SCORE.SYSTEM>
0

>  <SCORE.SYSTEM.CONST>
0

>  <SCORE.SYSTEM.DIHEDRAL>
0

>  <SCORE.SYSTEM.SOLV>
0

>  <SCORE.SYSTEM.norm>
0

>  <SCORE.heavy>
23

>  <SCORE.norm>
-0.808768

>  <RMSD>
5.883

$$$$
1uui_lig
 OpenBabel11021811413D
libRbt.so/2013.1/901 2013/11/27
 23 24  0  0  0  0  0  0  0  0999 V2000
   -7.2431    1.5798   -0.6295 C   0  0  0  0  0  0  0  0  0  0  0  0
   -9.6331    0.4078   -1.7982 O   0  0  0  0  0  0  0  0  0  0  0  0
   -9.0374    6.0714   -2.0674 O   0  0  0  0  0  0  0  0  0  0  0  0
  -10.9663    0.0775   -1.3888 C   0  0  0  0  0  0  0  0  0  0  0  0
   -8.9094    6.4754   -3.4329 C   0  0  0  0  0  0  0  0  0  0  0  0
   -6.9221    2.1275    0.7293 N   0  0  0  0  0  0  0  0  0  0  0  0
  -11.1438    0.4503    0.0839 C   0  0  0  0  0  0  0  0  0  0  0  0
   -5.6284    1.5930    1.2346 C   0  0  0  0  0  0  0  0  0  0  0  0
   -8.0029    1.8089    1.6993 C   0  0  0  0  0  0  0  0  0  0  0  0
  -12.5823    0.1647    0.5266 C   0  0  0  0  0  0  0  0  0  0  0  0
   -5.6541    0.0614    1.3741 C   0  0  0  0  0  0  0  0  0  0  0  0
   -8.2111    0.2911    1.8383 C   0  0  0  0  0  0  0  0  0  0  0  0
  -13.5117    1.0444   -0.2169 N   0  0  0  0  0  0  0  0  0  0  0  0
   -7.0456   -0.4862    1.3134 N   0  0  0  0  0  0  0  0  0  0  0  0
   -7.2265   -1.8444    0.9921 C   0  0  0  0  0  0  0  0  0  0  0  0
   -8.2880   -2.2467    0.2369 N   0  0  0  0  0  0  0  0  0  0  0  0
   -6.4237   -2.8018    1.5384 N   0  0  0  0  0  0  0  0  0  0  0  0
   -9.4796    1.8282   -1.8679 C   0  0  0  0  0  0  0  0  0  0  0  0
   -8.3278    2.4469   -1.3097 C   0  0  0  0  0  0  0  0  0  0  0  0
   -8.1817    3.8604   -1.3775 C   0  0  0  0  0  0  0  0  0  0  0  0
   -9.1851    4.6501   -2.0018 C   0  0  0  0  0  0  0  0  0  0  0  0
  -10.3335    4.0292   -2.5595 C   0  0  0  0  0  0  0  0  0  0  0  0
  -10.4810    2.6188   -2.4914 C   0  0  0  0  0  0  0  0  0  0  0  0
  2  4  1  0  0  0  0
  3  5  1  0  0  0  0
  4  7  1  0  0  0  0
  6  1  1  0  0  0  0
  7 10  1  0  0  0  0
  8  6  1  0  0  0  0
  8 11  1  0  0  0  0
  9  6  1  0  0  0  0
 10 13  1  0  0  0  0
 11 14  1  0  0  0  0
 12  9  1  0  0  0  0
 14 12  1  0  0  0  0
 14 15  1  0  0  0  0
 15 16  1  0  0  0  0
 15 17  1  0  0  0  0
 18  2  1  0  0  0  0
 18 23  2  0  0  0  0
 19  1  1  0  0  0  0
 19 18  1  0  0  0  0
 20 19  2  0  0  0  0
 21  3  1  0  0  0  0
 21 20  1  0  0  0  0
 22 21  2  0  0  0  0
 22 23  1  0  0  0  0
M  END
>  <CHROM.1>
-70.62244248,177.43371972,-162.77504210,-64.59613485,65.50326742,-143.82855406
113.13023219,-134.96562354,134.52152197,-129.39945648,115.11124361,-8.82325466
1.43872448,-0.38913152,-1.18860851,-0.25434915,-0.45340894

>  <Name>
1uui_lig

>  <RI>
0

>  <Rbt.Current_Directory>
/home/itssahil/PROJECTS/Mol_Feturizer/New_Systems/rnas/1uui

>  <Rbt.Executable>
rbdock ($Id: //depot/dev/client3/rdock/2013.1/src/exe/rbdock.cxx#4 $)

>  <Rbt.Library>
libRbt.so (2013.1, Build901 2013/11/27)

>  <Rbt.Parameter_File>
/export/apps/rDock/src/rDock_2013.1_src/data/scripts/dock_solv.prm

>  <Rbt.Receptor>
prm/pocket_docking_5.prm

>  <SCORE>
-23.3287

>  <SCORE.INTER>
-16.5788

>  <SCORE.INTER.CONST>
1

>  <SCORE.INTER.POLAR>
-3.30497

>  <SCORE.INTER.ROT>
10

>  <SCORE.INTER.SOLV>
6.4008

>  <SCORE.INTER.VDW>
-12.4363

>  <SCORE.INTER.norm>
-0.720819

>  <SCORE.INTRA>
-6.74987

>  <SCORE.INTRA.DIHEDRAL>
-11.3068

>  <SCORE.INTRA.DIHEDRAL.0>
23.4151

>  <SCORE.INTRA.POLAR>
0

>  <SCORE.INTRA.POLAR.0>
0

>  <SCORE.INTRA.REPUL>
0

>  <SCORE.INTRA.REPUL.0>
0

>  <SCORE.INTRA.SOLV>
0.689824

>  <SCORE.INTRA.SOLV.lig_0>
-17.3568

>  <SCORE.INTRA.VDW>
-1.44138

>  <SCORE.INTRA.VDW.0>
1.0768

>  <SCORE.INTRA.norm>
-0.293473

>  <SCORE.RESTR>
0

>  <SCORE.RESTR.CAVITY>
0

>  <SCORE.RESTR.norm>
0

>  <SCORE.SYSTEM>
0

>  <SCORE.SYSTEM.CONST>
0

>  <SCORE.SYSTEM.DIHEDRAL>
0

>  <SCORE.SYSTEM.SOLV>
0

>  <SCORE.SYSTEM.norm>
0

>  <SCORE.heavy>
23

>  <SCORE.norm>
-1.01429

>  <RMSD>
5.901

$$$$
1uui_lig
 OpenBabel11021811413D
libRbt.so/2013.1/901 2013/11/27
 23 24  0  0  0  0  0  0  0  0999 V2000
   -9.8553    0.0236    0.5732 C   0  0  0  0  0  0  0  0  0  0  0  0
  -11.7348    0.2583    2.7786 O   0  0  0  0  0  0  0  0  0  0  0  0
  -13.7396    0.9392   -2.5148 O   0  0  0  0  0  0  0  0  0  0  0  0
  -12.5487   -0.6776    3.4968 C   0  0  0  0  0  0  0  0  0  0  0  0
  -13.7098    2.3265   -2.8591 C   0  0  0  0  0  0  0  0  0  0  0  0
   -9.0726    1.3029    0.5843 N   0  0  0  0  0  0  0  0  0  0  0  0
  -13.5193    0.0905    4.3952 C   0  0  0  0  0  0  0  0  0  0  0  0
   -8.0327    1.3084   -0.4802 C   0  0  0  0  0  0  0  0  0  0  0  0
   -8.4294    1.5206    1.9069 C   0  0  0  0  0  0  0  0  0  0  0  0
  -14.6706   -0.8242    4.8249 C   0  0  0  0  0  0  0  0  0  0  0  0
   -7.0148    0.1700   -0.2956 C   0  0  0  0  0  0  0  0  0  0  0  0
   -7.4678    0.3747    2.2655 C   0  0  0  0  0  0  0  0  0  0  0  0
  -15.5917   -0.0764    5.7097 N   0  0  0  0  0  0  0  0  0  0  0  0
   -7.0947   -0.4410    1.0682 N   0  0  0  0  0  0  0  0  0  0  0  0
   -6.5698   -1.7319    1.2647 C   0  0  0  0  0  0  0  0  0  0  0  0
   -5.6113   -1.9587    2.2074 N   0  0  0  0  0  0  0  0  0  0  0  0
   -6.9081   -2.7555    0.4296 N   0  0  0  0  0  0  0  0  0  0  0  0
  -12.2362    0.4249    1.4494 C   0  0  0  0  0  0  0  0  0  0  0  0
  -11.3548    0.3197    0.3388 C   0  0  0  0  0  0  0  0  0  0  0  0
  -11.8573    0.4907   -0.9811 C   0  0  0  0  0  0  0  0  0  0  0  0
  -13.2365    0.7657   -1.1871 C   0  0  0  0  0  0  0  0  0  0  0  0
  -14.1144    0.8689   -0.0762 C   0  0  0  0  0  0  0  0  0  0  0  0
  -13.6138    0.6996    1.2416 C   0  0  0  0  0  0  0  0  0  0  0  0
  2  4  1  0  0  0  0
  3  5  1  0  0  0  0
  4  7  1  0  0  0  0
  6  1  1  0  0  0  0
  7 10  1  0  0  0  0
  8  6  1  0  0  0  0
  8 11  1  0  0  0  0
  9  6  1  0  0  0  0
 10 13  1  0  0  0  0
 11 14  1  0  0  0  0
 12  9  1  0  0  0  0
 14 12  1  0  0  0  0
 14 15  1  0  0  0  0
 15 16  1  0  0  0  0
 15 17  1  0  0  0  0
 18  2  1  0  0  0  0
 18 23  2  0  0  0  0
 19  1  1  0  0  0  0
 19 18  1  0  0  0  0
 20 19  2  0  0  0  0
 21  3  1  0  0  0  0
 21 20  1  0  0  0  0
 22 21  2  0  0  0  0
 22 23  1  0  0  0  0
M  END
>  <CHROM.1>
-99.91678225,162.18147442,-120.47850867,179.15384291,-70.32758116,123.36101151
-76.44051105,-1.07205371,-130.08389980,-95.90094365,-92.50623694,-10.76411007
0.12708841,1.18330976,0.10893539,0.19448872,-1.27455311

>  <Name>
1uui_lig

>  <RI>
0

>  <Rbt.Current_Directory>
/home/itssahil/PROJECTS/Mol_Feturizer/New_Systems/rnas/1uui

>  <Rbt.Executable>
rbdock ($Id: //depot/dev/client3/rdock/2013.1/src/exe/rbdock.cxx#4 $)

>  <Rbt.Library>
libRbt.so (2013.1, Build901 2013/11/27)

>  <Rbt.Parameter_File>
/export/apps/rDock/src/rDock_2013.1_src/data/scripts/dock_solv.prm

>  <Rbt.Receptor>
prm/pocket_docking_3.prm

>  <SCORE>
-25.5574

>  <SCORE.INTER>
-23.2645

>  <SCORE.INTER.CONST>
1

>  <SCORE.INTER.POLAR>
-3.84187

>  <SCORE.INTER.ROT>
10

>  <SCORE.INTER.SOLV>
6.10007

>  <SCORE.INTER.VDW>
-15.0035

>  <SCORE.INTER.norm>
-1.0115

>  <SCORE.INTRA>
-2.47183

>  <SCORE.INTRA.DIHEDRAL>
-1.18117

>  <SCORE.INTRA.DIHEDRAL.0>
23.4151

>  <SCORE.INTRA.POLAR>
0

>  <SCORE.INTRA.POLAR.0>
0

>  <SCORE.INTRA.REPUL>
0

>  <SCORE.INTRA.REPUL.0>
0

>  <SCORE.INTRA.SOLV>
0.0112478

>  <SCORE.INTRA.SOLV.lig_0>
-17.3568

>  <SCORE.INTRA.VDW>
-1.88687

>  <SCORE.INTRA.VDW.0>
1.0768

>  <SCORE.INTRA.norm>
-0.107471

>  <SCORE.RESTR>
0.178902

>  <SCORE.RESTR.CAVITY>
0.178902

>  <SCORE.RESTR.norm>
0.00777836

>  <SCORE.SYSTEM>
0

>  <SCORE.SYSTEM.CONST>
0

>  <SCORE.SYSTEM.DIHEDRAL>
0

>  <SCORE.SYSTEM.SOLV>
0

>  <SCORE.SYSTEM.norm>
0

>  <SCORE.heavy>
23

>  <SCORE.norm>
-1.11119

>  <RMSD>
5.914

$$$$
1uui_lig
 OpenBabel11021811413D
libRbt.so/2013.1/901 2013/11/27
 23 24  0  0  0  0  0  0  0  0999 V2000
  -11.1496    0.7098   -0.7195 C   0  0  0  0  0  0  0  0  0  0  0  0
  -10.0548    0.4724    1.9631 O   0  0  0  0  0  0  0  0  0  0  0  0
  -15.3548   -1.4292    1.0701 O   0  0  0  0  0  0  0  0  0  0  0  0
   -9.0991   -0.5026    1.5272 C   0  0  0  0  0  0  0  0  0  0  0  0
  -15.3639   -2.8584    1.1066 C   0  0  0  0  0  0  0  0  0  0  0  0
  -10.5236    1.9992   -0.2776 N   0  0  0  0  0  0  0  0  0  0  0  0
   -7.7307   -0.1603    2.1184 C   0  0  0  0  0  0  0  0  0  0  0  0
  -11.5518    3.0551   -0.0709 C   0  0  0  0  0  0  0  0  0  0  0  0
   -9.5214    2.4704   -1.2695 C   0  0  0  0  0  0  0  0  0  0  0  0
   -6.7053   -1.2250    1.7162 C   0  0  0  0  0  0  0  0  0  0  0  0
  -12.3265    3.3641   -1.3633 C   0  0  0  0  0  0  0  0  0  0  0  0
  -10.1564    2.7022   -2.6512 C   0  0  0  0  0  0  0  0  0  0  0  0
   -5.6942   -1.3667    2.7878 N   0  0  0  0  0  0  0  0  0  0  0  0
  -11.6469    2.8062   -2.5742 N   0  0  0  0  0  0  0  0  0  0  0  0
  -12.4009    2.6136   -3.7468 C   0  0  0  0  0  0  0  0  0  0  0  0
  -13.4961    3.3834   -4.0057 N   0  0  0  0  0  0  0  0  0  0  0  0
  -12.1349    1.5687   -4.5817 N   0  0  0  0  0  0  0  0  0  0  0  0
  -11.3830   -0.0076    1.7358 C   0  0  0  0  0  0  0  0  0  0  0  0
  -11.9612    0.0879    0.4405 C   0  0  0  0  0  0  0  0  0  0  0  0
  -13.2842   -0.3867    0.2202 C   0  0  0  0  0  0  0  0  0  0  0  0
  -14.0241   -0.9542    1.2930 C   0  0  0  0  0  0  0  0  0  0  0  0
  -13.4435   -1.0493    2.5849 C   0  0  0  0  0  0  0  0  0  0  0  0
  -12.1237   -0.5750    2.8062 C   0  0  0  0  0  0  0  0  0  0  0  0
  2  4  1  0  0  0  0
  3  5  1  0  0  0  0
  4  7  1  0  0  0  0
  6  1  1  0  0  0  0
  7 10  1  0  0  0  0
  8  6  1  0  0  0  0
  8 11  1  0  0  0  0
  9  6  1  0  0  0  0
 10 13  1  0  0  0  0
 11 14  1  0  0  0  0
 12  9  1  0  0  0  0
 14 12  1  0  0  0  0
 14 15  1  0  0  0  0
 15 16  1  0  0  0  0
 15 17  1  0  0  0  0
 18  2  1  0  0  0  0
 18 23  2  0  0  0  0
 19  1  1  0  0  0  0
 19 18  1  0  0  0  0
 20 19  2  0  0  0  0
 21  3  1  0  0  0  0
 21 20  1  0  0  0  0
 22 21  2  0  0  0  0
 22 23  1  0  0  0  0
M  END
>  <CHROM.1>
-164.43227814,177.49353196,-69.53219493,-148.52297217,84.72313396,27.48942231
-66.67939573,156.51585801,-80.69855056,-47.41802547,108.19722666,-11.30513761
0.64545386,-0.02569261,-2.15396667,0.17183379,2.25128492

>  <Name>
1uui_lig

>  <RI>
0

>  <Rbt.Current_Directory>
/home/itssahil/PROJECTS/Mol_Feturizer/New_Systems/rnas/1uui

>  <Rbt.Executable>
rbdock ($Id: //depot/dev/client3/rdock/2013.1/src/exe/rbdock.cxx#4 $)

>  <Rbt.Library>
libRbt.so (2013.1, Build901 2013/11/27)

>  <Rbt.Parameter_File>
/export/apps/rDock/src/rDock_2013.1_src/data/scripts/dock_solv.prm

>  <Rbt.Receptor>
prm/pocket_docking_4.prm

>  <SCORE>
-26.564

>  <SCORE.INTER>
-20.0939

>  <SCORE.INTER.CONST>
1

>  <SCORE.INTER.POLAR>
-2.43729

>  <SCORE.INTER.ROT>
10

>  <SCORE.INTER.SOLV>
8.02032

>  <SCORE.INTER.VDW>
-18.2117

>  <SCORE.INTER.norm>
-0.873648

>  <SCORE.INTRA>
-6.47008

>  <SCORE.INTRA.DIHEDRAL>
-4.48931

>  <SCORE.INTRA.DIHEDRAL.0>
23.4151

>  <SCORE.INTRA.POLAR>
-0.54419

>  <SCORE.INTRA.POLAR.0>
0

>  <SCORE.INTRA.REPUL>
0

>  <SCORE.INTRA.REPUL.0>
0

>  <SCORE.INTRA.SOLV>
0.317103

>  <SCORE.INTRA.SOLV.lig_0>
-17.3568

>  <SCORE.INTRA.VDW>
-2.53373

>  <SCORE.INTRA.VDW.0>
1.0768

>  <SCORE.INTRA.norm>
-0.281308

>  <SCORE.RESTR>
0

>  <SCORE.RESTR.CAVITY>
0

>  <SCORE.RESTR.norm>
0

>  <SCORE.SYSTEM>
0

>  <SCORE.SYSTEM.CONST>
0

>  <SCORE.SYSTEM.DIHEDRAL>
0

>  <SCORE.SYSTEM.SOLV>
0

>  <SCORE.SYSTEM.norm>
0

>  <SCORE.heavy>
23

>  <SCORE.norm>
-1.15496

>  <RMSD>
5.934

$$$$
1uui_lig
 OpenBabel11021811413D
libRbt.so/2013.1/901 2013/11/27
 23 24  0  0  0  0  0  0  0  0999 V2000
   -8.4434    1.7879   -0.3106 C   0  0  0  0  0  0  0  0  0  0  0  0
   -7.6508    3.4828   -2.5356 O   0  0  0  0  0  0  0  0  0  0  0  0
  -13.2059    3.1272   -1.3036 O   0  0  0  0  0  0  0  0  0  0  0  0
   -7.4731    4.1117   -3.8110 C   0  0  0  0  0  0  0  0  0  0  0  0
  -13.6189    4.3053   -0.6068 C   0  0  0  0  0  0  0  0  0  0  0  0
   -8.6923    1.9953    1.1538 N   0  0  0  0  0  0  0  0  0  0  0  0
   -6.1611    3.6264   -4.4292 C   0  0  0  0  0  0  0  0  0  0  0  0
   -7.4208    1.9668    1.9265 C   0  0  0  0  0  0  0  0  0  0  0  0
   -9.6196    0.9624    1.6866 C   0  0  0  0  0  0  0  0  0  0  0  0
   -6.3478    2.2260   -5.0217 C   0  0  0  0  0  0  0  0  0  0  0  0
   -6.6963    0.6166    1.7919 C   0  0  0  0  0  0  0  0  0  0  0  0
   -9.0561   -0.4566    1.4990 C   0  0  0  0  0  0  0  0  0  0  0  0
   -7.1730    2.3143   -6.2472 N   0  0  0  0  0  0  0  0  0  0  0  0
   -7.5853   -0.4454    1.2251 N   0  0  0  0  0  0  0  0  0  0  0  0
   -6.9964   -1.5820    0.6406 C   0  0  0  0  0  0  0  0  0  0  0  0
   -6.7129   -1.6126   -0.6927 N   0  0  0  0  0  0  0  0  0  0  0  0
   -6.8202   -2.7246    1.3639 N   0  0  0  0  0  0  0  0  0  0  0  0
   -9.0437    3.3950   -2.2222 C   0  0  0  0  0  0  0  0  0  0  0  0
   -9.4794    2.5782   -1.1432 C   0  0  0  0  0  0  0  0  0  0  0  0
  -10.8661    2.4905   -0.8381 C   0  0  0  0  0  0  0  0  0  0  0  0
  -11.8118    3.2180   -1.6107 C   0  0  0  0  0  0  0  0  0  0  0  0
  -11.3735    4.0338   -2.6866 C   0  0  0  0  0  0  0  0  0  0  0  0
   -9.9899    4.1212   -2.9927 C   0  0  0  0  0  0  0  0  0  0  0  0
  2  4  1  0  0  0  0
  3  5  1  0  0  0  0
  4  7  1  0  0  0  0
  6  1  1  0  0  0  0
  7 10  1  0  0  0  0
  8  6  1  0  0  0  0
  8 11  1  0  0  0  0
  9  6  1  0  0  0  0
 10 13  1  0  0  0  0
 11 14  1  0  0  0  0
 12  9  1  0  0  0  0
 14 12  1  0  0  0  0
 14 15  1  0  0  0  0
 15 16  1  0  0  0  0
 15 17  1  0  0  0  0
 18  2  1  0  0  0  0
 18 23  2  0  0  0  0
 19  1  1  0  0  0  0
 19 18  1  0  0  0  0
 20 19  2  0  0  0  0
 21  3  1  0  0  0  0
 21 20  1  0  0  0  0
 22 21  2  0  0  0  0
 22 23  1  0  0  0  0
M  END
>  <CHROM.1>
-153.19507029,78.05827755,-147.38798999,71.80563566,-174.66944514,-91.24221138
70.63857956,162.78488986,167.47276164,131.64830851,102.90246959,-8.75272142
1.84616135,-1.11444060,1.18703546,-0.49734109,2.14550780

>  <Name>
1uui_lig

>  <RI>
0

>  <Rbt.Current_Directory>
/home/itssahil/PROJECTS/Mol_Feturizer/New_Systems/rnas/1uui

>  <Rbt.Executable>
rbdock ($Id: //depot/dev/client3/rdock/2013.1/src/exe/rbdock.cxx#4 $)

>  <Rbt.Library>
libRbt.so (2013.1, Build901 2013/11/27)

>  <Rbt.Parameter_File>
/export/apps/rDock/src/rDock_2013.1_src/data/scripts/dock_solv.prm

>  <Rbt.Receptor>
prm/pocket_docking_7.prm

>  <SCORE>
-30.4491

>  <SCORE.INTER>
-27.846

>  <SCORE.INTER.CONST>
1

>  <SCORE.INTER.POLAR>
-4.82873

>  <SCORE.INTER.ROT>
10

>  <SCORE.INTER.SOLV>
5.80736

>  <SCORE.INTER.VDW>
-14.6707

>  <SCORE.INTER.norm>
-1.2107

>  <SCORE.INTRA>
-2.60306

>  <SCORE.INTRA.DIHEDRAL>
-7.7319

>  <SCORE.INTRA.DIHEDRAL.0>
23.4151

>  <SCORE.INTRA.POLAR>
0

>  <SCORE.INTRA.POLAR.0>
0

>  <SCORE.INTRA.REPUL>
0

>  <SCORE.INTRA.REPUL.0>
0

>  <SCORE.INTRA.SOLV>
0.123897

>  <SCORE.INTRA.SOLV.lig_0>
-17.3568

>  <SCORE.INTRA.VDW>
1.20094

>  <SCORE.INTRA.VDW.0>
1.0768

>  <SCORE.INTRA.norm>
-0.113177

>  <SCORE.RESTR>
0

>  <SCORE.RESTR.CAVITY>
0

>  <SCORE.RESTR.norm>
0

>  <SCORE.SYSTEM>
0

>  <SCORE.SYSTEM.CONST>
0

>  <SCORE.SYSTEM.DIHEDRAL>
0

>  <SCORE.SYSTEM.SOLV>
0

>  <SCORE.SYSTEM.norm>
0

>  <SCORE.heavy>
23

>  <SCORE.norm>
-1.32387

>  <RMSD>
5.936

$$$$
1uui_lig
 OpenBabel11021811413D
libRbt.so/2013.1/901 2013/11/27
 23 24  0  0  0  0  0  0  0  0999 V2000
  -11.2749    2.9422    0.0613 C   0  0  0  0  0  0  0  0  0  0  0  0
  -10.8637    0.0654   -0.0168 O   0  0  0  0  0  0  0  0  0  0  0  0
  -13.1139    2.3080    4.7173 O   0  0  0  0  0  0  0  0  0  0  0  0
   -9.4391    0.2209   -0.0007 C   0  0  0  0  0  0  0  0  0  0  0  0
  -12.1141    2.3640    5.7378 C   0  0  0  0  0  0  0  0  0  0  0  0
  -12.3978    3.8905   -0.2376 N   0  0  0  0  0  0  0  0  0  0  0  0
   -8.8411   -0.7555    1.0133 C   0  0  0  0  0  0  0  0  0  0  0  0
  -13.5956    3.1663   -0.7430 C   0  0  0  0  0  0  0  0  0  0  0  0
  -11.9794    4.9122   -1.2334 C   0  0  0  0  0  0  0  0  0  0  0  0
   -7.3330   -0.8928    0.7815 C   0  0  0  0  0  0  0  0  0  0  0  0
  -13.3013    2.4096   -2.0494 C   0  0  0  0  0  0  0  0  0  0  0  0
  -11.5406    4.2662   -2.5586 C   0  0  0  0  0  0  0  0  0  0  0  0
   -7.0103   -2.2985    0.4492 N   0  0  0  0  0  0  0  0  0  0  0  0
  -12.0194    2.8541   -2.6810 N   0  0  0  0  0  0  0  0  0  0  0  0
  -11.3889    2.0027   -3.6073 C   0  0  0  0  0  0  0  0  0  0  0  0
  -12.0481    1.5741   -4.7212 N   0  0  0  0  0  0  0  0  0  0  0  0
  -10.1565    1.4806   -3.3461 N   0  0  0  0  0  0  0  0  0  0  0  0
  -11.4317    0.6298    1.1685 C   0  0  0  0  0  0  0  0  0  0  0  0
  -11.6509    2.0320    1.2535 C   0  0  0  0  0  0  0  0  0  0  0  0
  -12.2119    2.5893    2.4361 C   0  0  0  0  0  0  0  0  0  0  0  0
  -12.5516    1.7456    3.5283 C   0  0  0  0  0  0  0  0  0  0  0  0
  -12.3328    0.3457    3.4399 C   0  0  0  0  0  0  0  0  0  0  0  0
  -11.7720   -0.2115    2.2606 C   0  0  0  0  0  0  0  0  0  0  0  0
  2  4  1  0  0  0  0
  3  5  1  0  0  0  0
  4  7  1  0  0  0  0
  6  1  1  0  0  0  0
  7 10  1  0  0  0  0
  8  6  1  0  0  0  0
  8 11  1  0  0  0  0
  9  6  1  0  0  0  0
 10 13  1  0  0  0  0
 11 14  1  0  0  0  0
 12  9  1  0  0  0  0
 14 12  1  0  0  0  0
 14 15  1  0  0  0  0
 15 16  1  0  0  0  0
 15 17  1  0  0  0  0
 18  2  1  0  0  0  0
 18 23  2  0  0  0  0
 19  1  1  0  0  0  0
 19 18  1  0  0  0  0
 20 19  2  0  0  0  0
 21  3  1  0  0  0  0
 21 20  1  0  0  0  0
 22 21  2  0  0  0  0
 22 23  1  0  0  0  0
M  END
>  <CHROM.1>
73.36493867,164.39066292,-66.78522080,-118.93459340,60.37745695,57.08641006
127.78104729,46.34224231,81.10811429,133.04641227,-103.55130681,-11.27265124
1.60757904,0.19318782,1.62984544,0.77990729,-1.37466026

>  <Name>
1uui_lig

>  <RI>
0

>  <Rbt.Current_Directory>
/home/itssahil/PROJECTS/Mol_Feturizer/New_Systems/rnas/1uui

>  <Rbt.Executable>
rbdock ($Id: //depot/dev/client3/rdock/2013.1/src/exe/rbdock.cxx#4 $)

>  <Rbt.Library>
libRbt.so (2013.1, Build901 2013/11/27)

>  <Rbt.Parameter_File>
/export/apps/rDock/src/rDock_2013.1_src/data/scripts/dock_solv.prm

>  <Rbt.Receptor>
prm/pocket_docking_4.prm

>  <SCORE>
-23.9175

>  <SCORE.INTER>
-20.0326

>  <SCORE.INTER.CONST>
1

>  <SCORE.INTER.POLAR>
-3.34575

>  <SCORE.INTER.ROT>
10

>  <SCORE.INTER.SOLV>
7.21988

>  <SCORE.INTER.VDW>
-14.8759

>  <SCORE.INTER.norm>
-0.870984

>  <SCORE.INTRA>
-4.00603

>  <SCORE.INTRA.DIHEDRAL>
-2.47083

>  <SCORE.INTRA.DIHEDRAL.0>
23.4151

>  <SCORE.INTRA.POLAR>
0

>  <SCORE.INTRA.POLAR.0>
0

>  <SCORE.INTRA.REPUL>
0

>  <SCORE.INTRA.REPUL.0>
0

>  <SCORE.INTRA.SOLV>
0.490226

>  <SCORE.INTRA.SOLV.lig_0>
-17.3568

>  <SCORE.INTRA.VDW>
-3.01573

>  <SCORE.INTRA.VDW.0>
1.0768

>  <SCORE.INTRA.norm>
-0.174175

>  <SCORE.RESTR>
0.121151

>  <SCORE.RESTR.CAVITY>
0.121151

>  <SCORE.RESTR.norm>
0.00526742

>  <SCORE.SYSTEM>
0

>  <SCORE.SYSTEM.CONST>
0

>  <SCORE.SYSTEM.DIHEDRAL>
0

>  <SCORE.SYSTEM.SOLV>
0

>  <SCORE.SYSTEM.norm>
0

>  <SCORE.heavy>
23

>  <SCORE.norm>
-1.03989

>  <RMSD>
5.941

$$$$
1uui_lig
 OpenBabel11021811413D
libRbt.so/2013.1/901 2013/11/27
 23 24  0  0  0  0  0  0  0  0999 V2000
   -7.8375    0.7749    0.1542 C   0  0  0  0  0  0  0  0  0  0  0  0
   -8.5721    0.9178   -2.6550 O   0  0  0  0  0  0  0  0  0  0  0  0
  -12.3421    2.8021    1.1844 O   0  0  0  0  0  0  0  0  0  0  0  0
   -8.2654    1.9553   -3.5949 C   0  0  0  0  0  0  0  0  0  0  0  0
  -12.2692    4.2275    1.2684 C   0  0  0  0  0  0  0  0  0  0  0  0
   -7.4869   -0.4391   -0.6538 N   0  0  0  0  0  0  0  0  0  0  0  0
   -7.4717    3.0536   -2.8856 C   0  0  0  0  0  0  0  0  0  0  0  0
   -7.8595   -1.6896    0.0619 C   0  0  0  0  0  0  0  0  0  0  0  0
   -6.0348   -0.4640   -0.9722 C   0  0  0  0  0  0  0  0  0  0  0  0
   -8.4286    4.1013   -2.3080 C   0  0  0  0  0  0  0  0  0  0  0  0
   -7.1193   -1.8268    1.4033 C   0  0  0  0  0  0  0  0  0  0  0  0
   -5.1746   -0.4800    0.3030 C   0  0  0  0  0  0  0  0  0  0  0  0
   -8.9906    4.9167   -3.4079 N   0  0  0  0  0  0  0  0  0  0  0  0
   -5.9647   -0.8805    1.5086 N   0  0  0  0  0  0  0  0  0  0  0  0
   -5.4616   -0.5640    2.7842 C   0  0  0  0  0  0  0  0  0  0  0  0
   -4.6224   -1.4193    3.4346 N   0  0  0  0  0  0  0  0  0  0  0  0
   -5.9058    0.5377    3.4540 N   0  0  0  0  0  0  0  0  0  0  0  0
   -9.5149    1.3935   -1.6901 C   0  0  0  0  0  0  0  0  0  0  0  0
   -9.2005    1.3433   -0.3045 C   0  0  0  0  0  0  0  0  0  0  0  0
  -10.1431    1.8134    0.6517 C   0  0  0  0  0  0  0  0  0  0  0  0
  -11.3948    2.3315    0.2214 C   0  0  0  0  0  0  0  0  0  0  0  0
  -11.7052    2.3815   -1.1630 C   0  0  0  0  0  0  0  0  0  0  0  0
  -10.7658    1.9116   -2.1181 C   0  0  0  0  0  0  0  0  0  0  0  0
  2  4  1  0  0  0  0
  3  5  1  0  0  0  0
  4  7  1  0  0  0  0
  6  1  1  0  0  0  0
  7 10  1  0  0  0  0
  8  6  1  0  0  0  0
  8 11  1  0  0  0  0
  9  6  1  0  0  0  0
 10 13  1  0  0  0  0
 11 14  1  0  0  0  0
 12  9  1  0  0  0  0
 14 12  1  0  0  0  0
 14 15  1  0  0  0  0
 15 16  1  0  0  0  0
 15 17  1  0  0  0  0
 18  2  1  0  0  0  0
 18 23  2  0  0  0  0
 19  1  1  0  0  0  0
 19 18  1  0  0  0  0
 20 19  2  0  0  0  0
 21  3  1  0  0  0  0
 21 20  1  0  0  0  0
 22 21  2  0  0  0  0
 22 23  1  0  0  0  0
M  END
>  <CHROM.1>
68.76642979,-90.16000512,-96.96957088,-72.92563218,60.23920721,79.69787376
-18.97786247,-145.23444370,-123.25312202,-40.93469654,99.44619019,-8.33011467
1.17883865,-0.21737257,0.71084349,-0.52352055,1.92592571

>  <Name>
1uui_lig

>  <RI>
0

>  <Rbt.Current_Directory>
/home/itssahil/PROJECTS/Mol_Feturizer/New_Systems/rnas/1uui

>  <Rbt.Executable>
rbdock ($Id: //depot/dev/client3/rdock/2013.1/src/exe/rbdock.cxx#4 $)

>  <Rbt.Library>
libRbt.so (2013.1, Build901 2013/11/27)

>  <Rbt.Parameter_File>
/export/apps/rDock/src/rDock_2013.1_src/data/scripts/dock_solv.prm

>  <Rbt.Receptor>
prm/pocket_docking_4.prm

>  <SCORE>
-19.8989

>  <SCORE.INTER>
-13.0607

>  <SCORE.INTER.CONST>
1

>  <SCORE.INTER.POLAR>
-2.16242

>  <SCORE.INTER.ROT>
10

>  <SCORE.INTER.SOLV>
6.00557

>  <SCORE.INTER.VDW>
-13.7676

>  <SCORE.INTER.norm>
-0.567858

>  <SCORE.INTRA>
-6.83818

>  <SCORE.INTRA.DIHEDRAL>
-4.66566

>  <SCORE.INTRA.DIHEDRAL.0>
23.4151

>  <SCORE.INTRA.POLAR>
-0.702389

>  <SCORE.INTRA.POLAR.0>
0

>  <SCORE.INTRA.REPUL>
0

>  <SCORE.INTRA.REPUL.0>
0

>  <SCORE.INTRA.SOLV>
0.598331

>  <SCORE.INTRA.SOLV.lig_0>
-17.3568

>  <SCORE.INTRA.VDW>
-2.41639

>  <SCORE.INTRA.VDW.0>
1.0768

>  <SCORE.INTRA.norm>
-0.297312

>  <SCORE.RESTR>
0

>  <SCORE.RESTR.CAVITY>
0

>  <SCORE.RESTR.norm>
0

>  <SCORE.SYSTEM>
0

>  <SCORE.SYSTEM.CONST>
0

>  <SCORE.SYSTEM.DIHEDRAL>
0

>  <SCORE.SYSTEM.SOLV>
0

>  <SCORE.SYSTEM.norm>
0

>  <SCORE.heavy>
23

>  <SCORE.norm>
-0.865171

>  <RMSD>
5.944

$$$$
1uui_lig
 OpenBabel11021811413D
libRbt.so/2013.1/901 2013/11/27
 23 24  0  0  0  0  0  0  0  0999 V2000
  -11.6429    2.0162   -0.3403 C   0  0  0  0  0  0  0  0  0  0  0  0
  -10.0591   -0.1777    0.7226 O   0  0  0  0  0  0  0  0  0  0  0  0
  -15.1259    0.8582    3.1223 O   0  0  0  0  0  0  0  0  0  0  0  0
   -9.0235   -0.0727    1.7077 C   0  0  0  0  0  0  0  0  0  0  0  0
  -14.9296    1.4152    4.4243 C   0  0  0  0  0  0  0  0  0  0  0  0
  -11.6273    3.4616    0.0598 N   0  0  0  0  0  0  0  0  0  0  0  0
   -7.6855   -0.4468    1.0680 C   0  0  0  0  0  0  0  0  0  0  0  0
  -12.9988    4.0393    0.0484 C   0  0  0  0  0  0  0  0  0  0  0  0
  -10.7486    4.2528   -0.8415 C   0  0  0  0  0  0  0  0  0  0  0  0
   -7.7042   -1.9165    0.6361 C   0  0  0  0  0  0  0  0  0  0  0  0
  -13.6370    3.9782   -1.3497 C   0  0  0  0  0  0  0  0  0  0  0  0
  -11.2168    4.1722   -2.3045 C   0  0  0  0  0  0  0  0  0  0  0  0
   -6.6145   -2.6467    1.3215 N   0  0  0  0  0  0  0  0  0  0  0  0
  -12.6283    3.6892   -2.4169 N   0  0  0  0  0  0  0  0  0  0  0  0
  -13.0735    3.1786   -3.6504 C   0  0  0  0  0  0  0  0  0  0  0  0
  -14.2087    3.6575   -4.2343 N   0  0  0  0  0  0  0  0  0  0  0  0
  -12.4575    2.1048   -4.2223 N   0  0  0  0  0  0  0  0  0  0  0  0
  -11.3324    0.0816    1.3206 C   0  0  0  0  0  0  0  0  0  0  0  0
  -12.1423    1.1445    0.8352 C   0  0  0  0  0  0  0  0  0  0  0  0
  -13.4060    1.4015    1.4361 C   0  0  0  0  0  0  0  0  0  0  0  0
  -13.8558    0.5971    2.5182 C   0  0  0  0  0  0  0  0  0  0  0  0
  -13.0454   -0.4643    2.9997 C   0  0  0  0  0  0  0  0  0  0  0  0
  -11.7836   -0.7210    2.4016 C   0  0  0  0  0  0  0  0  0  0  0  0
  2  4  1  0  0  0  0
  3  5  1  0  0  0  0
  4  7  1  0  0  0  0
  6  1  1  0  0  0  0
  7 10  1  0  0  0  0
  8  6  1  0  0  0  0
  8 11  1  0  0  0  0
  9  6  1  0  0  0  0
 10 13  1  0  0  0  0
 11 14  1  0  0  0  0
 12  9  1  0  0  0  0
 14 12  1  0  0  0  0
 14 15  1  0  0  0  0
 15 16  1  0  0  0  0
 15 17  1  0  0  0  0
 18  2  1  0  0  0  0
 18 23  2  0  0  0  0
 19  1  1  0  0  0  0
 19 18  1  0  0  0  0
 20 19  2  0  0  0  0
 21  3  1  0  0  0  0
 21 20  1  0  0  0  0
 22 21  2  0  0  0  0
 22 23  1  0  0  0  0
M  END
>  <CHROM.1>
176.17656957,-64.33725529,-76.94742526,-121.05650994,-173.35327096,40.79996318
25.47432244,159.36571151,121.09918930,-123.74307171,-108.76183013,-11.74314757
1.45350697,0.18750627,-2.17941961,-0.45722285,2.10844447

>  <Name>
1uui_lig

>  <RI>
0

>  <Rbt.Current_Directory>
/home/itssahil/PROJECTS/Mol_Feturizer/New_Systems/rnas/1uui

>  <Rbt.Executable>
rbdock ($Id: //depot/dev/client3/rdock/2013.1/src/exe/rbdock.cxx#4 $)

>  <Rbt.Library>
libRbt.so (2013.1, Build901 2013/11/27)

>  <Rbt.Parameter_File>
/export/apps/rDock/src/rDock_2013.1_src/data/scripts/dock_solv.prm

>  <Rbt.Receptor>
prm/pocket_docking_5.prm

>  <SCORE>
-22.5028

>  <SCORE.INTER>
-18.6774

>  <SCORE.INTER.CONST>
1

>  <SCORE.INTER.POLAR>
-3.29883

>  <SCORE.INTER.ROT>
10

>  <SCORE.INTER.SOLV>
6.76258

>  <SCORE.INTER.VDW>
-13.9764

>  <SCORE.INTER.norm>
-0.812062

>  <SCORE.INTRA>
-3.82538

>  <SCORE.INTRA.DIHEDRAL>
-4.84537

>  <SCORE.INTRA.DIHEDRAL.0>
23.4151

>  <SCORE.INTRA.POLAR>
0

>  <SCORE.INTRA.POLAR.0>
0

>  <SCORE.INTRA.REPUL>
0

>  <SCORE.INTRA.REPUL.0>
0

>  <SCORE.INTRA.SOLV>
0.0579727

>  <SCORE.INTRA.SOLV.lig_0>
-17.3568

>  <SCORE.INTRA.VDW>
-1.43168

>  <SCORE.INTRA.VDW.0>
1.0768

>  <SCORE.INTRA.norm>
-0.166321

>  <SCORE.RESTR>
0

>  <SCORE.RESTR.CAVITY>
0

>  <SCORE.RESTR.norm>
0

>  <SCORE.SYSTEM>
0

>  <SCORE.SYSTEM.CONST>
0

>  <SCORE.SYSTEM.DIHEDRAL>
0

>  <SCORE.SYSTEM.SOLV>
0

>  <SCORE.SYSTEM.norm>
0

>  <SCORE.heavy>
23

>  <SCORE.norm>
-0.978383

>  <RMSD>
5.959

$$$$
1uui_lig
 OpenBabel11021811413D
libRbt.so/2013.1/901 2013/11/27
 23 24  0  0  0  0  0  0  0  0999 V2000
   -9.1106    1.9586   -0.0111 C   0  0  0  0  0  0  0  0  0  0  0  0
   -8.8541    3.2323   -2.6117 O   0  0  0  0  0  0  0  0  0  0  0  0
  -13.6695    4.0965    0.3155 O   0  0  0  0  0  0  0  0  0  0  0  0
   -8.8946    1.9497   -3.2498 C   0  0  0  0  0  0  0  0  0  0  0  0
  -13.5201    5.2423    1.1574 C   0  0  0  0  0  0  0  0  0  0  0  0
   -7.9002    2.7894    0.2960 N   0  0  0  0  0  0  0  0  0  0  0  0
   -7.5589    1.6978   -3.9509 C   0  0  0  0  0  0  0  0  0  0  0  0
   -6.6850    2.2359   -0.3610 C   0  0  0  0  0  0  0  0  0  0  0  0
   -7.6744    2.8770    1.7629 C   0  0  0  0  0  0  0  0  0  0  0  0
   -7.3467    2.7324   -5.0607 C   0  0  0  0  0  0  0  0  0  0  0  0
   -6.3708    0.8090    0.1197 C   0  0  0  0  0  0  0  0  0  0  0  0
   -7.4653    1.4875    2.3887 C   0  0  0  0  0  0  0  0  0  0  0  0
   -6.6535    2.0961   -6.2031 N   0  0  0  0  0  0  0  0  0  0  0  0
   -7.1271    0.4538    1.3613 N   0  0  0  0  0  0  0  0  0  0  0  0
   -7.2998   -0.9049    1.6849 C   0  0  0  0  0  0  0  0  0  0  0  0
   -6.6314   -1.4620    2.7345 N   0  0  0  0  0  0  0  0  0  0  0  0
   -8.0323   -1.7248    0.8782 N   0  0  0  0  0  0  0  0  0  0  0  0
  -10.0599    3.4508   -1.8738 C   0  0  0  0  0  0  0  0  0  0  0  0
  -10.2312    2.8482   -0.5976 C   0  0  0  0  0  0  0  0  0  0  0  0
  -11.4340    3.0647    0.1307 C   0  0  0  0  0  0  0  0  0  0  0  0
  -12.4601    3.8814   -0.4174 C   0  0  0  0  0  0  0  0  0  0  0  0
  -12.2855    4.4829   -1.6914 C   0  0  0  0  0  0  0  0  0  0  0  0
  -11.0861    4.2666   -2.4196 C   0  0  0  0  0  0  0  0  0  0  0  0
  2  4  1  0  0  0  0
  3  5  1  0  0  0  0
  4  7  1  0  0  0  0
  6  1  1  0  0  0  0
  7 10  1  0  0  0  0
  8  6  1  0  0  0  0
  8 11  1  0  0  0  0
  9  6  1  0  0  0  0
 10 13  1  0  0  0  0
 11 14  1  0  0  0  0
 12  9  1  0  0  0  0
 14 12  1  0  0  0  0
 14 15  1  0  0  0  0
 15 16  1  0  0  0  0
 15 17  1  0  0  0  0
 18  2  1  0  0  0  0
 18 23  2  0  0  0  0
 19  1  1  0  0  0  0
 19 18  1  0  0  0  0
 20 19  2  0  0  0  0
 21  3  1  0  0  0  0
 21 20  1  0  0  0  0
 22 21  2  0  0  0  0
 22 23  1  0  0  0  0
M  END
>  <CHROM.1>
-176.10804613,-63.41771832,-125.93926672,-144.32128778,-176.90018769,108.70812476
4.59538915,83.63388060,79.06069409,66.94388881,89.38527294,-8.99885434,2.19283152
-0.69578293,0.50593468,-0.58842755,1.88812685

>  <Name>
1uui_lig

>  <RI>
0

>  <Rbt.Current_Directory>
/home/itssahil/PROJECTS/Mol_Feturizer/New_Systems/rnas/1uui

>  <Rbt.Executable>
rbdock ($Id: //depot/dev/client3/rdock/2013.1/src/exe/rbdock.cxx#4 $)

>  <Rbt.Library>
libRbt.so (2013.1, Build901 2013/11/27)

>  <Rbt.Parameter_File>
/export/apps/rDock/src/rDock_2013.1_src/data/scripts/dock_solv.prm

>  <Rbt.Receptor>
prm/pocket_docking_6.prm

>  <SCORE>
-20.4431

>  <SCORE.INTER>
-15.6499

>  <SCORE.INTER.CONST>
1

>  <SCORE.INTER.POLAR>
-3.04203

>  <SCORE.INTER.ROT>
10

>  <SCORE.INTER.SOLV>
5.97771

>  <SCORE.INTER.VDW>
-12.5524

>  <SCORE.INTER.norm>
-0.680429

>  <SCORE.INTRA>
-4.79322

>  <SCORE.INTRA.DIHEDRAL>
-2.44606

>  <SCORE.INTRA.DIHEDRAL.0>
23.4151

>  <SCORE.INTRA.POLAR>
0

>  <SCORE.INTRA.POLAR.0>
0

>  <SCORE.INTRA.REPUL>
0

>  <SCORE.INTRA.REPUL.0>
0

>  <SCORE.INTRA.SOLV>
0.20682

>  <SCORE.INTRA.SOLV.lig_0>
-17.3568

>  <SCORE.INTRA.VDW>
-3.6736

>  <SCORE.INTRA.VDW.0>
1.0768

>  <SCORE.INTRA.norm>
-0.208401

>  <SCORE.RESTR>
0

>  <SCORE.RESTR.CAVITY>
0

>  <SCORE.RESTR.norm>
0

>  <SCORE.SYSTEM>
0

>  <SCORE.SYSTEM.CONST>
0

>  <SCORE.SYSTEM.DIHEDRAL>
0

>  <SCORE.SYSTEM.SOLV>
0

>  <SCORE.SYSTEM.norm>
0

>  <SCORE.heavy>
23

>  <SCORE.norm>
-0.88883

>  <RMSD>
5.963

$$$$
1uui_lig
 OpenBabel11021811413D
libRbt.so/2013.1/901 2013/11/27
 23 24  0  0  0  0  0  0  0  0999 V2000
   -8.4584    1.0302   -1.7488 C   0  0  0  0  0  0  0  0  0  0  0  0
   -6.4713    0.9616    0.3721 O   0  0  0  0  0  0  0  0  0  0  0  0
   -5.7478    4.7393   -3.8362 O   0  0  0  0  0  0  0  0  0  0  0  0
   -5.7571   -0.2443    0.0724 C   0  0  0  0  0  0  0  0  0  0  0  0
   -6.3971    5.9668   -3.4958 C   0  0  0  0  0  0  0  0  0  0  0  0
   -9.2426    1.1882   -0.4802 N   0  0  0  0  0  0  0  0  0  0  0  0
   -5.7932   -1.1634    1.2944 C   0  0  0  0  0  0  0  0  0  0  0  0
  -10.3374    0.1839   -0.3940 C   0  0  0  0  0  0  0  0  0  0  0  0
   -9.8156    2.5563   -0.3769 C   0  0  0  0  0  0  0  0  0  0  0  0
   -4.5312   -0.9614    2.1390 C   0  0  0  0  0  0  0  0  0  0  0  0
  -11.3412    0.3267   -1.5507 C   0  0  0  0  0  0  0  0  0  0  0  0
  -10.7540    2.8687   -1.5550 C   0  0  0  0  0  0  0  0  0  0  0  0
   -4.7691   -1.4645    3.5105 N   0  0  0  0  0  0  0  0  0  0  0  0
  -11.1878    1.6291   -2.2717 N   0  0  0  0  0  0  0  0  0  0  0  0
  -11.6983    1.7454   -3.5779 C   0  0  0  0  0  0  0  0  0  0  0  0
  -10.8944    1.5459   -4.6609 N   0  0  0  0  0  0  0  0  0  0  0  0
  -12.9695    2.1904   -3.7915 N   0  0  0  0  0  0  0  0  0  0  0  0
   -6.2939    1.9112   -0.6829 C   0  0  0  0  0  0  0  0  0  0  0  0
   -7.2393    1.9815   -1.7423 C   0  0  0  0  0  0  0  0  0  0  0  0
   -7.0563    2.9245   -2.7917 C   0  0  0  0  0  0  0  0  0  0  0  0
   -5.9312    3.7930   -2.7793 C   0  0  0  0  0  0  0  0  0  0  0  0
   -4.9896    3.7213   -1.7193 C   0  0  0  0  0  0  0  0  0  0  0  0
   -5.1706    2.7799   -0.6721 C   0  0  0  0  0  0  0  0  0  0  0  0
  2  4  1  0  0  0  0
  3  5  1  0  0  0  0
  4  7  1  0  0  0  0
  6  1  1  0  0  0  0
  7 10  1  0  0  0  0
  8  6  1  0  0  0  0
  8 11  1  0  0  0  0
  9  6  1  0  0  0  0
 10 13  1  0  0  0  0
 11 14  1  0  0  0  0
 12  9  1  0  0  0  0
 14 12  1  0  0  0  0
 14 15  1  0  0  0  0
 15 16  1  0  0  0  0
 15 17  1  0  0  0  0
 18  2  1  0  0  0  0
 18 23  2  0  0  0  0
 19  1  1  0  0  0  0
 19 18  1  0  0  0  0
 20 19  2  0  0  0  0
 21  3  1  0  0  0  0
 21 20  1  0  0  0  0
 22 21  2  0  0  0  0
 22 23  1  0  0  0  0
M  END
>  <CHROM.1>
171.94236405,-94.69180140,-173.93531817,160.35153425,-82.94774851,-95.28321390
-58.06583306,22.67298531,93.23139776,56.62136767,90.03798285,-7.98161873
1.71585611,-1.31545311,2.45913490,-0.29018206,-0.75570914

>  <Name>
1uui_lig

>  <RI>
0

>  <Rbt.Current_Directory>
/home/itssahil/PROJECTS/Mol_Feturizer/New_Systems/rnas/1uui

>  <Rbt.Executable>
rbdock ($Id: //depot/dev/client3/rdock/2013.1/src/exe/rbdock.cxx#4 $)

>  <Rbt.Library>
libRbt.so (2013.1, Build901 2013/11/27)

>  <Rbt.Parameter_File>
/export/apps/rDock/src/rDock_2013.1_src/data/scripts/dock_solv.prm

>  <Rbt.Receptor>
prm/pocket_docking_7.prm

>  <SCORE>
-22.4411

>  <SCORE.INTER>
-14.9766

>  <SCORE.INTER.CONST>
1

>  <SCORE.INTER.POLAR>
-3.11312

>  <SCORE.INTER.ROT>
10

>  <SCORE.INTER.SOLV>
6.72734

>  <SCORE.INTER.VDW>
-12.1165

>  <SCORE.INTER.norm>
-0.651157

>  <SCORE.INTRA>
-7.46445

>  <SCORE.INTRA.DIHEDRAL>
-3.31958

>  <SCORE.INTRA.DIHEDRAL.0>
23.4151

>  <SCORE.INTRA.POLAR>
-0.59683

>  <SCORE.INTRA.POLAR.0>
0

>  <SCORE.INTRA.REPUL>
0

>  <SCORE.INTRA.REPUL.0>
0

>  <SCORE.INTRA.SOLV>
0.295709

>  <SCORE.INTRA.SOLV.lig_0>
-17.3568

>  <SCORE.INTRA.VDW>
-3.9233

>  <SCORE.INTRA.VDW.0>
1.0768

>  <SCORE.INTRA.norm>
-0.324542

>  <SCORE.RESTR>
0

>  <SCORE.RESTR.CAVITY>
0

>  <SCORE.RESTR.norm>
0

>  <SCORE.SYSTEM>
0

>  <SCORE.SYSTEM.CONST>
0

>  <SCORE.SYSTEM.DIHEDRAL>
0

>  <SCORE.SYSTEM.SOLV>
0

>  <SCORE.SYSTEM.norm>
0

>  <SCORE.heavy>
23

>  <SCORE.norm>
-0.975699

>  <RMSD>
5.967

$$$$
1uui_lig
 OpenBabel11021811413D
libRbt.so/2013.1/901 2013/11/27
 23 24  0  0  0  0  0  0  0  0999 V2000
   -7.5751    1.3332   -0.0140 C   0  0  0  0  0  0  0  0  0  0  0  0
   -8.2391    0.9234   -2.8145 O   0  0  0  0  0  0  0  0  0  0  0  0
  -10.3456    5.5453   -0.2251 O   0  0  0  0  0  0  0  0  0  0  0  0
   -7.5071    1.3056   -3.9859 C   0  0  0  0  0  0  0  0  0  0  0  0
  -11.3716    5.1514    0.6894 C   0  0  0  0  0  0  0  0  0  0  0  0
   -8.2419    0.9424    1.2713 N   0  0  0  0  0  0  0  0  0  0  0  0
   -6.9473    0.0504   -4.6571 C   0  0  0  0  0  0  0  0  0  0  0  0
   -7.2590    0.8599    2.3857 C   0  0  0  0  0  0  0  0  0  0  0  0
   -8.9430   -0.3612    1.1312 C   0  0  0  0  0  0  0  0  0  0  0  0
   -5.5604   -0.2716   -4.0914 C   0  0  0  0  0  0  0  0  0  0  0  0
   -6.1723   -0.1950    2.1171 C   0  0  0  0  0  0  0  0  0  0  0  0
   -7.9719   -1.4884    0.7405 C   0  0  0  0  0  0  0  0  0  0  0  0
   -4.5591    0.6388   -4.6906 N   0  0  0  0  0  0  0  0  0  0  0  0
   -6.5460   -1.1160    0.9982 N   0  0  0  0  0  0  0  0  0  0  0  0
   -5.5290   -1.8354    0.3436 C   0  0  0  0  0  0  0  0  0  0  0  0
   -5.0968   -1.4616   -0.8943 N   0  0  0  0  0  0  0  0  0  0  0  0
   -5.0482   -2.9974    0.8711 N   0  0  0  0  0  0  0  0  0  0  0  0
   -8.7633    2.0844   -2.1638 C   0  0  0  0  0  0  0  0  0  0  0  0
   -8.4665    2.3268   -0.7947 C   0  0  0  0  0  0  0  0  0  0  0  0
   -8.9938    3.4804   -0.1505 C   0  0  0  0  0  0  0  0  0  0  0  0
   -9.8148    4.3868   -0.8750 C   0  0  0  0  0  0  0  0  0  0  0  0
  -10.1083    4.1427   -2.2423 C   0  0  0  0  0  0  0  0  0  0  0  0
   -9.5835    2.9912   -2.8859 C   0  0  0  0  0  0  0  0  0  0  0  0
  2  4  1  0  0  0  0
  3  5  1  0  0  0  0
  4  7  1  0  0  0  0
  6  1  1  0  0  0  0
  7 10  1  0  0  0  0
  8  6  1  0  0  0  0
  8 11  1  0  0  0  0
  9  6  1  0  0  0  0
 10 13  1  0  0  0  0
 11 14  1  0  0  0  0
 12  9  1  0  0  0  0
 14 12  1  0  0  0  0
 14 15  1  0  0  0  0
 15 16  1  0  0  0  0
 15 17  1  0  0  0  0
 18  2  1  0  0  0  0
 18 23  2  0  0  0  0
 19  1  1  0  0  0  0
 19 18  1  0  0  0  0
 20 19  2  0  0  0  0
 21  3  1  0  0  0  0
 21 20  1  0  0  0  0
 22 21  2  0  0  0  0
 22 23  1  0  0  0  0
M  END
>  <CHROM.1>
179.53077225,-89.53573200,-139.92851992,-77.38215133,-179.53888518,-104.18139707
74.74537429,-104.18179167,-124.74327682,-129.39492929,-71.89004028,-7.70063203
1.09681321,-0.87827416,2.86049954,0.87645170,-1.25327457

>  <Name>
1uui_lig

>  <RI>
0

>  <Rbt.Current_Directory>
/home/itssahil/PROJECTS/Mol_Feturizer/New_Systems/rnas/1uui

>  <Rbt.Executable>
rbdock ($Id: //depot/dev/client3/rdock/2013.1/src/exe/rbdock.cxx#4 $)

>  <Rbt.Library>
libRbt.so (2013.1, Build901 2013/11/27)

>  <Rbt.Parameter_File>
/export/apps/rDock/src/rDock_2013.1_src/data/scripts/dock_solv.prm

>  <Rbt.Receptor>
prm/pocket_docking_6.prm

>  <SCORE>
-18.2429

>  <SCORE.INTER>
-13.4535

>  <SCORE.INTER.CONST>
1

>  <SCORE.INTER.POLAR>
-2.50055

>  <SCORE.INTER.ROT>
10

>  <SCORE.INTER.SOLV>
4.1137

>  <SCORE.INTER.VDW>
-12.2717

>  <SCORE.INTER.norm>
-0.584934

>  <SCORE.INTRA>
-4.87998

>  <SCORE.INTRA.DIHEDRAL>
-5.2199

>  <SCORE.INTRA.DIHEDRAL.0>
23.4151

>  <SCORE.INTRA.POLAR>
0

>  <SCORE.INTRA.POLAR.0>
0

>  <SCORE.INTRA.REPUL>
0

>  <SCORE.INTRA.REPUL.0>
0

>  <SCORE.INTRA.SOLV>
0.329745

>  <SCORE.INTRA.SOLV.lig_0>
-17.3568

>  <SCORE.INTRA.VDW>
-2.4349

>  <SCORE.INTRA.VDW.0>
1.0768

>  <SCORE.INTRA.norm>
-0.212173

>  <SCORE.RESTR>
0.090599

>  <SCORE.RESTR.CAVITY>
0.090599

>  <SCORE.RESTR.norm>
0.00393909

>  <SCORE.SYSTEM>
0

>  <SCORE.SYSTEM.CONST>
0

>  <SCORE.SYSTEM.DIHEDRAL>
0

>  <SCORE.SYSTEM.SOLV>
0

>  <SCORE.SYSTEM.norm>
0

>  <SCORE.heavy>
23

>  <SCORE.norm>
-0.793168

>  <RMSD>
5.982

$$$$
1uui_lig
 OpenBabel11021811413D
libRbt.so/2013.1/901 2013/11/27
 23 24  0  0  0  0  0  0  0  0999 V2000
   -7.9762   -0.2577    0.1570 C   0  0  0  0  0  0  0  0  0  0  0  0
  -10.8629    0.0838    0.1169 O   0  0  0  0  0  0  0  0  0  0  0  0
   -7.8643    2.2367   -4.2279 O   0  0  0  0  0  0  0  0  0  0  0  0
  -11.2579    1.1370    1.0050 C   0  0  0  0  0  0  0  0  0  0  0  0
   -7.3928    3.5407   -3.8797 C   0  0  0  0  0  0  0  0  0  0  0  0
   -7.2992   -1.4922   -0.3600 N   0  0  0  0  0  0  0  0  0  0  0  0
  -11.7092    0.5278    2.3333 C   0  0  0  0  0  0  0  0  0  0  0  0
   -7.2327   -2.5490    0.6857 C   0  0  0  0  0  0  0  0  0  0  0  0
   -5.9266   -1.1835   -0.8408 C   0  0  0  0  0  0  0  0  0  0  0  0
  -12.9155   -0.3889    2.1060 C   0  0  0  0  0  0  0  0  0  0  0  0
   -6.4304   -2.0914    1.9156 C   0  0  0  0  0  0  0  0  0  0  0  0
   -5.0510   -0.5983    0.2803 C   0  0  0  0  0  0  0  0  0  0  0  0
  -13.4078   -0.8896    3.4088 N   0  0  0  0  0  0  0  0  0  0  0  0
   -5.6249   -0.8613    1.6367 N   0  0  0  0  0  0  0  0  0  0  0  0
   -5.1918   -0.0742    2.7199 C   0  0  0  0  0  0  0  0  0  0  0  0
   -5.9894    0.9056    3.2325 N   0  0  0  0  0  0  0  0  0  0  0  0
   -3.9174   -0.1819    3.1929 N   0  0  0  0  0  0  0  0  0  0  0  0
  -10.1088    0.6198   -0.9741 C   0  0  0  0  0  0  0  0  0  0  0  0
   -8.6944    0.4780   -0.9980 C   0  0  0  0  0  0  0  0  0  0  0  0
   -7.9482    1.0166   -2.0829 C   0  0  0  0  0  0  0  0  0  0  0  0
   -8.6163    1.6941   -3.1388 C   0  0  0  0  0  0  0  0  0  0  0  0
  -10.0289    1.8329   -3.1127 C   0  0  0  0  0  0  0  0  0  0  0  0
  -10.7745    1.2968   -2.0300 C   0  0  0  0  0  0  0  0  0  0  0  0
  2  4  1  0  0  0  0
  3  5  1  0  0  0  0
  4  7  1  0  0  0  0
  6  1  1  0  0  0  0
  7 10  1  0  0  0  0
  8  6  1  0  0  0  0
  8 11  1  0  0  0  0
  9  6  1  0  0  0  0
 10 13  1  0  0  0  0
 11 14  1  0  0  0  0
 12  9  1  0  0  0  0
 14 12  1  0  0  0  0
 14 15  1  0  0  0  0
 15 16  1  0  0  0  0
 15 17  1  0  0  0  0
 18  2  1  0  0  0  0
 18 23  2  0  0  0  0
 19  1  1  0  0  0  0
 19 18  1  0  0  0  0
 20 19  2  0  0  0  0
 21  3  1  0  0  0  0
 21 20  1  0  0  0  0
 22 21  2  0  0  0  0
 22 23  1  0  0  0  0
M  END
>  <CHROM.1>
-164.40909874,-61.31714088,-150.11760228,-175.66139829,-58.77864438,-86.90585589
-173.16295454,-113.70724122,103.26210916,116.69465112,-85.23171631,-8.35401239
0.19356600,0.13033359,-0.47425801,0.08583262,-1.14836041

>  <Name>
1uui_lig

>  <RI>
0

>  <Rbt.Current_Directory>
/home/itssahil/PROJECTS/Mol_Feturizer/New_Systems/rnas/1uui

>  <Rbt.Executable>
rbdock ($Id: //depot/dev/client3/rdock/2013.1/src/exe/rbdock.cxx#4 $)

>  <Rbt.Library>
libRbt.so (2013.1, Build901 2013/11/27)

>  <Rbt.Parameter_File>
/export/apps/rDock/src/rDock_2013.1_src/data/scripts/dock_solv.prm

>  <Rbt.Receptor>
prm/pocket_docking_5.prm

>  <SCORE>
-21.061

>  <SCORE.INTER>
-14.5424

>  <SCORE.INTER.CONST>
1

>  <SCORE.INTER.POLAR>
-1.59068

>  <SCORE.INTER.ROT>
10

>  <SCORE.INTER.SOLV>
6.28833

>  <SCORE.INTER.VDW>
-16.7554

>  <SCORE.INTER.norm>
-0.632279

>  <SCORE.INTRA>
-6.52368

>  <SCORE.INTRA.DIHEDRAL>
-6.96671

>  <SCORE.INTRA.DIHEDRAL.0>
23.4151

>  <SCORE.INTRA.POLAR>
0

>  <SCORE.INTRA.POLAR.0>
0

>  <SCORE.INTRA.REPUL>
0

>  <SCORE.INTRA.REPUL.0>
0

>  <SCORE.INTRA.SOLV>
-0.0235889

>  <SCORE.INTRA.SOLV.lig_0>
-17.3568

>  <SCORE.INTRA.VDW>
-3.02853

>  <SCORE.INTRA.VDW.0>
1.0768

>  <SCORE.INTRA.norm>
-0.283638

>  <SCORE.RESTR>
0.0050503

>  <SCORE.RESTR.CAVITY>
0.0050503

>  <SCORE.RESTR.norm>
0.000219578

>  <SCORE.SYSTEM>
0

>  <SCORE.SYSTEM.CONST>
0

>  <SCORE.SYSTEM.DIHEDRAL>
0

>  <SCORE.SYSTEM.SOLV>
0

>  <SCORE.SYSTEM.norm>
0

>  <SCORE.heavy>
23

>  <SCORE.norm>
-0.915698

>  <RMSD>
5.985

$$$$
1uui_lig
 OpenBabel11021811413D
libRbt.so/2013.1/901 2013/11/27
 23 24  0  0  0  0  0  0  0  0999 V2000
  -12.1412    0.3637   -1.0927 C   0  0  0  0  0  0  0  0  0  0  0  0
  -10.4408    0.9036    1.2026 O   0  0  0  0  0  0  0  0  0  0  0  0
  -15.2671   -1.9999    2.0861 O   0  0  0  0  0  0  0  0  0  0  0  0
   -9.3071    0.0759    1.4920 C   0  0  0  0  0  0  0  0  0  0  0  0
  -16.1133   -1.2576    2.9675 C   0  0  0  0  0  0  0  0  0  0  0  0
  -12.9054    1.6081   -1.4346 N   0  0  0  0  0  0  0  0  0  0  0  0
   -8.1048    0.9673    1.8065 C   0  0  0  0  0  0  0  0  0  0  0  0
  -13.1468    1.7076   -2.8997 C   0  0  0  0  0  0  0  0  0  0  0  0
  -12.1823    2.8205   -0.9679 C   0  0  0  0  0  0  0  0  0  0  0  0
   -6.9446    0.1156    2.3317 C   0  0  0  0  0  0  0  0  0  0  0  0
  -11.8324    1.7673   -3.6964 C   0  0  0  0  0  0  0  0  0  0  0  0
  -10.7879    2.9309   -1.6079 C   0  0  0  0  0  0  0  0  0  0  0  0
   -5.9572    0.9880    3.0059 N   0  0  0  0  0  0  0  0  0  0  0  0
  -10.6560    2.0642   -2.8203 N   0  0  0  0  0  0  0  0  0  0  0  0
   -9.3676    1.7338   -3.2799 C   0  0  0  0  0  0  0  0  0  0  0  0
   -9.0911    1.6994   -4.6146 N   0  0  0  0  0  0  0  0  0  0  0  0
   -8.4056    1.3109   -2.4108 N   0  0  0  0  0  0  0  0  0  0  0  0
  -11.6504    0.1719    1.4212 C   0  0  0  0  0  0  0  0  0  0  0  0
  -12.5144   -0.1155    0.3294 C   0  0  0  0  0  0  0  0  0  0  0  0
  -13.7185   -0.8396    0.5524 C   0  0  0  0  0  0  0  0  0  0  0  0
  -14.0551   -1.2736    1.8634 C   0  0  0  0  0  0  0  0  0  0  0  0
  -13.1897   -0.9861    2.9514 C   0  0  0  0  0  0  0  0  0  0  0  0
  -11.9883   -0.2626    2.7302 C   0  0  0  0  0  0  0  0  0  0  0  0
  2  4  1  0  0  0  0
  3  5  1  0  0  0  0
  4  7  1  0  0  0  0
  6  1  1  0  0  0  0
  7 10  1  0  0  0  0
  8  6  1  0  0  0  0
  8 11  1  0  0  0  0
  9  6  1  0  0  0  0
 10 13  1  0  0  0  0
 11 14  1  0  0  0  0
 12  9  1  0  0  0  0
 14 12  1  0  0  0  0
 14 15  1  0  0  0  0
 15 16  1  0  0  0  0
 15 17  1  0  0  0  0
 18  2  1  0  0  0  0
 18 23  2  0  0  0  0
 19  1  1  0  0  0  0
 19 18  1  0  0  0  0
 20 19  2  0  0  0  0
 21  3  1  0  0  0  0
 21 20  1  0  0  0  0
 22 21  2  0  0  0  0
 22 23  1  0  0  0  0
M  END
>  <CHROM.1>
-157.36005532,171.13886239,-150.57896415,-163.09449593,67.02908581,27.96513045
-111.14981526,144.20128822,-115.30172961,-100.32425019,-118.01328654,-11.21399297
0.65580935,-0.02369244,2.38545562,0.19826761,1.94539054

>  <Name>
1uui_lig

>  <RI>
0

>  <Rbt.Current_Directory>
/home/itssahil/PROJECTS/Mol_Feturizer/New_Systems/rnas/1uui

>  <Rbt.Executable>
rbdock ($Id: //depot/dev/client3/rdock/2013.1/src/exe/rbdock.cxx#4 $)

>  <Rbt.Library>
libRbt.so (2013.1, Build901 2013/11/27)

>  <Rbt.Parameter_File>
/export/apps/rDock/src/rDock_2013.1_src/data/scripts/dock_solv.prm

>  <Rbt.Receptor>
prm/pocket_docking_3.prm

>  <SCORE>
-15.7903

>  <SCORE.INTER>
-11.2688

>  <SCORE.INTER.CONST>
1

>  <SCORE.INTER.POLAR>
-1.58262

>  <SCORE.INTER.ROT>
10

>  <SCORE.INTER.SOLV>
6.63246

>  <SCORE.INTER.VDW>
-14.7146

>  <SCORE.INTER.norm>
-0.489946

>  <SCORE.INTRA>
-5.29226

>  <SCORE.INTRA.DIHEDRAL>
-6.20171

>  <SCORE.INTRA.DIHEDRAL.0>
23.4151

>  <SCORE.INTRA.POLAR>
0

>  <SCORE.INTRA.POLAR.0>
0

>  <SCORE.INTRA.REPUL>
0.0175582

>  <SCORE.INTRA.REPUL.0>
0

>  <SCORE.INTRA.SOLV>
0.309068

>  <SCORE.INTRA.SOLV.lig_0>
-17.3568

>  <SCORE.INTRA.VDW>
-2.43373

>  <SCORE.INTRA.VDW.0>
1.0768

>  <SCORE.INTRA.norm>
-0.230098

>  <SCORE.RESTR>
0.770707

>  <SCORE.RESTR.CAVITY>
0.770707

>  <SCORE.RESTR.norm>
0.033509

>  <SCORE.SYSTEM>
0

>  <SCORE.SYSTEM.CONST>
0

>  <SCORE.SYSTEM.DIHEDRAL>
0

>  <SCORE.SYSTEM.SOLV>
0

>  <SCORE.SYSTEM.norm>
0

>  <SCORE.heavy>
23

>  <SCORE.norm>
-0.686536

>  <RMSD>
5.992

$$$$
1uui_lig
 OpenBabel11021811413D
libRbt.so/2013.1/901 2013/11/27
 23 24  0  0  0  0  0  0  0  0999 V2000
   -7.2096    2.2188    0.0728 C   0  0  0  0  0  0  0  0  0  0  0  0
   -7.2867    2.5315   -2.8165 O   0  0  0  0  0  0  0  0  0  0  0  0
  -11.0246    5.5145    0.2873 O   0  0  0  0  0  0  0  0  0  0  0  0
   -7.9557    1.9150   -3.9238 C   0  0  0  0  0  0  0  0  0  0  0  0
  -10.8565    6.9104    0.0281 C   0  0  0  0  0  0  0  0  0  0  0  0
   -7.3099    2.3583    1.5627 N   0  0  0  0  0  0  0  0  0  0  0  0
   -6.9180    1.2394   -4.8216 C   0  0  0  0  0  0  0  0  0  0  0  0
   -6.1047    1.8057    2.2387 C   0  0  0  0  0  0  0  0  0  0  0  0
   -8.5252    1.6752    2.0795 C   0  0  0  0  0  0  0  0  0  0  0  0
   -6.1028    0.2277   -4.0099 C   0  0  0  0  0  0  0  0  0  0  0  0
   -5.9203    0.3062    1.9501 C   0  0  0  0  0  0  0  0  0  0  0  0
   -8.5177    0.1739    1.7446 C   0  0  0  0  0  0  0  0  0  0  0  0
   -5.2904   -0.6019   -4.9277 N   0  0  0  0  0  0  0  0  0  0  0  0
   -7.1533   -0.3111    1.3685 N   0  0  0  0  0  0  0  0  0  0  0  0
   -7.0360   -1.5204    0.6584 C   0  0  0  0  0  0  0  0  0  0  0  0
   -7.3339   -1.5801   -0.6708 N   0  0  0  0  0  0  0  0  0  0  0  0
   -6.7530   -2.6850    1.3089 N   0  0  0  0  0  0  0  0  0  0  0  0
   -8.2210    3.2819   -2.0354 C   0  0  0  0  0  0  0  0  0  0  0  0
   -8.2218    3.1613   -0.6188 C   0  0  0  0  0  0  0  0  0  0  0  0
   -9.1559    3.9061    0.1535 C   0  0  0  0  0  0  0  0  0  0  0  0
  -10.0849    4.7677   -0.4907 C   0  0  0  0  0  0  0  0  0  0  0  0
  -10.0808    4.8870   -1.9053 C   0  0  0  0  0  0  0  0  0  0  0  0
   -9.1497    4.1433   -2.6772 C   0  0  0  0  0  0  0  0  0  0  0  0
  2  4  1  0  0  0  0
  3  5  1  0  0  0  0
  4  7  1  0  0  0  0
  6  1  1  0  0  0  0
  7 10  1  0  0  0  0
  8  6  1  0  0  0  0
  8 11  1  0  0  0  0
  9  6  1  0  0  0  0
 10 13  1  0  0  0  0
 11 14  1  0  0  0  0
 12  9  1  0  0  0  0
 14 12  1  0  0  0  0
 14 15  1  0  0  0  0
 15 16  1  0  0  0  0
 15 17  1  0  0  0  0
 18  2  1  0  0  0  0
 18 23  2  0  0  0  0
 19  1  1  0  0  0  0
 19 18  1  0  0  0  0
 20 19  2  0  0  0  0
 21  3  1  0  0  0  0
 21 20  1  0  0  0  0
 22 21  2  0  0  0  0
 22 23  1  0  0  0  0
M  END
>  <CHROM.1>
174.26315253,56.87090021,-162.55673642,169.10692721,154.94477697,-116.03555226
-134.45942296,8.15635083,133.67320616,174.50069753,121.81320078,-7.87930814
1.84978077,-0.68938168,0.21230525,-1.03483202,1.83016723

>  <Name>
1uui_lig

>  <RI>
0

>  <Rbt.Current_Directory>
/home/itssahil/PROJECTS/Mol_Feturizer/New_Systems/rnas/1uui

>  <Rbt.Executable>
rbdock ($Id: //depot/dev/client3/rdock/2013.1/src/exe/rbdock.cxx#4 $)

>  <Rbt.Library>
libRbt.so (2013.1, Build901 2013/11/27)

>  <Rbt.Parameter_File>
/export/apps/rDock/src/rDock_2013.1_src/data/scripts/dock_solv.prm

>  <Rbt.Receptor>
prm/pocket_docking_6.prm

>  <SCORE>
-31.5513

>  <SCORE.INTER>
-27.3123

>  <SCORE.INTER.CONST>
1

>  <SCORE.INTER.POLAR>
-4.96053

>  <SCORE.INTER.ROT>
10

>  <SCORE.INTER.SOLV>
5.77045

>  <SCORE.INTER.VDW>
-13.8633

>  <SCORE.INTER.norm>
-1.18749

>  <SCORE.INTRA>
-4.58801

>  <SCORE.INTRA.DIHEDRAL>
-10.5737

>  <SCORE.INTRA.DIHEDRAL.0>
23.4151

>  <SCORE.INTRA.POLAR>
0

>  <SCORE.INTRA.POLAR.0>
0

>  <SCORE.INTRA.REPUL>
0

>  <SCORE.INTRA.REPUL.0>
0

>  <SCORE.INTRA.SOLV>
0.121922

>  <SCORE.INTRA.SOLV.lig_0>
-17.3568

>  <SCORE.INTRA.VDW>
0.637894

>  <SCORE.INTRA.VDW.0>
1.0768

>  <SCORE.INTRA.norm>
-0.199479

>  <SCORE.RESTR>
0.349044

>  <SCORE.RESTR.CAVITY>
0.349044

>  <SCORE.RESTR.norm>
0.0151758

>  <SCORE.SYSTEM>
0

>  <SCORE.SYSTEM.CONST>
0

>  <SCORE.SYSTEM.DIHEDRAL>
0

>  <SCORE.SYSTEM.SOLV>
0

>  <SCORE.SYSTEM.norm>
0

>  <SCORE.heavy>
23

>  <SCORE.norm>
-1.37179

>  <RMSD>
5.997

$$$$
1uui_lig
 OpenBabel11021811413D
libRbt.so/2013.1/901 2013/11/27
 23 24  0  0  0  0  0  0  0  0999 V2000
  -14.3811    0.4647    1.1709 C   0  0  0  0  0  0  0  0  0  0  0  0
  -12.8234    1.6967   -0.9521 O   0  0  0  0  0  0  0  0  0  0  0  0
  -15.0129    5.0989    3.0646 O   0  0  0  0  0  0  0  0  0  0  0  0
  -13.7257    1.6100   -2.0622 C   0  0  0  0  0  0  0  0  0  0  0  0
  -13.9676    5.5610    3.9236 C   0  0  0  0  0  0  0  0  0  0  0  0
  -14.0040   -0.0695    2.5207 N   0  0  0  0  0  0  0  0  0  0  0  0
  -12.9517    1.1576   -3.3013 C   0  0  0  0  0  0  0  0  0  0  0  0
  -13.3261   -1.3896    2.4083 C   0  0  0  0  0  0  0  0  0  0  0  0
  -15.2004   -0.1993    3.3937 C   0  0  0  0  0  0  0  0  0  0  0  0
  -11.8125    2.1390   -3.5945 C   0  0  0  0  0  0  0  0  0  0  0  0
  -14.2319   -2.4475    1.7555 C   0  0  0  0  0  0  0  0  0  0  0  0
  -16.2467   -1.1485    2.7849 C   0  0  0  0  0  0  0  0  0  0  0  0
  -11.0144    1.6421   -4.7376 N   0  0  0  0  0  0  0  0  0  0  0  0
  -15.6636   -2.0139    1.7128 N   0  0  0  0  0  0  0  0  0  0  0  0
  -16.5321   -2.6313    0.7935 C   0  0  0  0  0  0  0  0  0  0  0  0
  -17.0918   -1.9175   -0.2244 N   0  0  0  0  0  0  0  0  0  0  0  0
  -16.9387   -3.9199    0.9775 N   0  0  0  0  0  0  0  0  0  0  0  0
  -13.3705    2.5479    0.0589 C   0  0  0  0  0  0  0  0  0  0  0  0
  -14.1399    1.9911    1.1169 C   0  0  0  0  0  0  0  0  0  0  0  0
  -14.6858    2.8422    2.1176 C   0  0  0  0  0  0  0  0  0  0  0  0
  -14.4617    4.2446    2.0585 C   0  0  0  0  0  0  0  0  0  0  0  0
  -13.6919    4.7973    1.0015 C   0  0  0  0  0  0  0  0  0  0  0  0
  -13.1475    3.9491    0.0016 C   0  0  0  0  0  0  0  0  0  0  0  0
  2  4  1  0  0  0  0
  3  5  1  0  0  0  0
  4  7  1  0  0  0  0
  6  1  1  0  0  0  0
  7 10  1  0  0  0  0
  8  6  1  0  0  0  0
  8 11  1  0  0  0  0
  9  6  1  0  0  0  0
 10 13  1  0  0  0  0
 11 14  1  0  0  0  0
 12  9  1  0  0  0  0
 14 12  1  0  0  0  0
 14 15  1  0  0  0  0
 15 16  1  0  0  0  0
 15 17  1  0  0  0  0
 18  2  1  0  0  0  0
 18 23  2  0  0  0  0
 19  1  1  0  0  0  0
 19 18  1  0  0  0  0
 20 19  2  0  0  0  0
 21  3  1  0  0  0  0
 21 20  1  0  0  0  0
 22 21  2  0  0  0  0
 22 23  1  0  0  0  0
M  END
>  <CHROM.1>
159.24824034,-58.01835497,-140.70610706,176.12694705,68.06900621,-115.08658649
-60.69711975,-24.64156728,92.86721748,128.05214924,107.26767793,-14.27725901
0.98984556,0.64745083,2.64002134,-1.05914001,-2.50216861

>  <Name>
1uui_lig

>  <RI>
0

>  <Rbt.Current_Directory>
/home/itssahil/PROJECTS/Mol_Feturizer/New_Systems/rnas/1uui

>  <Rbt.Executable>
rbdock ($Id: //depot/dev/client3/rdock/2013.1/src/exe/rbdock.cxx#4 $)

>  <Rbt.Library>
libRbt.so (2013.1, Build901 2013/11/27)

>  <Rbt.Parameter_File>
/export/apps/rDock/src/rDock_2013.1_src/data/scripts/dock_solv.prm

>  <Rbt.Receptor>
prm/pocket_docking_5.prm

>  <SCORE>
-10.7905

>  <SCORE.INTER>
-5.47952

>  <SCORE.INTER.CONST>
1

>  <SCORE.INTER.POLAR>
-1.6215

>  <SCORE.INTER.ROT>
10

>  <SCORE.INTER.SOLV>
5.20327

>  <SCORE.INTER.VDW>
-10.2491

>  <SCORE.INTER.norm>
-0.23824

>  <SCORE.INTRA>
-5.31101

>  <SCORE.INTRA.DIHEDRAL>
-5.27492

>  <SCORE.INTRA.DIHEDRAL.0>
23.4151

>  <SCORE.INTRA.POLAR>
0

>  <SCORE.INTRA.POLAR.0>
0

>  <SCORE.INTRA.REPUL>
0

>  <SCORE.INTRA.REPUL.0>
0

>  <SCORE.INTRA.SOLV>
-0.0334914

>  <SCORE.INTRA.SOLV.lig_0>
-17.3568

>  <SCORE.INTRA.VDW>
-2.6568

>  <SCORE.INTRA.VDW.0>
1.0768

>  <SCORE.INTRA.norm>
-0.230913

>  <SCORE.RESTR>
0

>  <SCORE.RESTR.CAVITY>
0

>  <SCORE.RESTR.norm>
0

>  <SCORE.SYSTEM>
0

>  <SCORE.SYSTEM.CONST>
0

>  <SCORE.SYSTEM.DIHEDRAL>
0

>  <SCORE.SYSTEM.SOLV>
0

>  <SCORE.SYSTEM.norm>
0

>  <SCORE.heavy>
23

>  <SCORE.norm>
-0.469153

>  <RMSD>
5.998

$$$$
1uui_lig
 OpenBabel11021811413D
libRbt.so/2013.1/901 2013/11/27
 23 24  0  0  0  0  0  0  0  0999 V2000
   -7.8306   -0.8592   -0.6664 C   0  0  0  0  0  0  0  0  0  0  0  0
   -7.3761    1.7135   -1.9416 O   0  0  0  0  0  0  0  0  0  0  0  0
  -12.7704    0.0316   -1.1825 O   0  0  0  0  0  0  0  0  0  0  0  0
   -7.1826    2.1304   -3.2991 C   0  0  0  0  0  0  0  0  0  0  0  0
  -13.3428   -0.3126   -2.4466 C   0  0  0  0  0  0  0  0  0  0  0  0
   -8.1247   -1.4336    0.6874 N   0  0  0  0  0  0  0  0  0  0  0  0
   -7.0083    0.8935   -4.1817 C   0  0  0  0  0  0  0  0  0  0  0  0
   -8.3442   -0.3590    1.6933 C   0  0  0  0  0  0  0  0  0  0  0  0
   -7.0194   -2.3186    1.1406 C   0  0  0  0  0  0  0  0  0  0  0  0
   -5.6323    0.2657   -3.9376 C   0  0  0  0  0  0  0  0  0  0  0  0
   -7.1049    0.5371    1.8572 C   0  0  0  0  0  0  0  0  0  0  0  0
   -5.6846   -1.5592    1.2290 C   0  0  0  0  0  0  0  0  0  0  0  0
   -5.3272   -0.6930   -5.0231 N   0  0  0  0  0  0  0  0  0  0  0  0
   -5.8822   -0.0763    1.2502 N   0  0  0  0  0  0  0  0  0  0  0  0
   -4.7956    0.7567    0.9250 C   0  0  0  0  0  0  0  0  0  0  0  0
   -3.8313    1.0366    1.8473 N   0  0  0  0  0  0  0  0  0  0  0  0
   -4.7523    1.4089   -0.2718 N   0  0  0  0  0  0  0  0  0  0  0  0
   -8.7287    1.2912   -1.7466 C   0  0  0  0  0  0  0  0  0  0  0  0
   -9.0006    0.0403   -1.1280 C   0  0  0  0  0  0  0  0  0  0  0  0
  -10.3475   -0.3775   -0.9403 C   0  0  0  0  0  0  0  0  0  0  0  0
  -11.4168    0.4542   -1.3704 C   0  0  0  0  0  0  0  0  0  0  0  0
  -11.1421    1.7033   -1.9866 C   0  0  0  0  0  0  0  0  0  0  0  0
   -9.7983    2.1209   -2.1755 C   0  0  0  0  0  0  0  0  0  0  0  0
  2  4  1  0  0  0  0
  3  5  1  0  0  0  0
  4  7  1  0  0  0  0
  6  1  1  0  0  0  0
  7 10  1  0  0  0  0
  8  6  1  0  0  0  0
  8 11  1  0  0  0  0
  9  6  1  0  0  0  0
 10 13  1  0  0  0  0
 11 14  1  0  0  0  0
 12  9  1  0  0  0  0
 14 12  1  0  0  0  0
 14 15  1  0  0  0  0
 15 16  1  0  0  0  0
 15 17  1  0  0  0  0
 18  2  1  0  0  0  0
 18 23  2  0  0  0  0
 19  1  1  0  0  0  0
 19 18  1  0  0  0  0
 20 19  2  0  0  0  0
 21  3  1  0  0  0  0
 21 20  1  0  0  0  0
 22 21  2  0  0  0  0
 22 23  1  0  0  0  0
M  END
>  <CHROM.1>
-79.33656795,-72.94068607,-58.71398969,-165.20253156,-58.07003844,87.93514061
52.48045947,-163.63230420,129.95674746,137.04368127,-108.64986531,-7.86013968
0.26362020,-0.95896779,0.36377150,0.05237198,1.82385013

>  <Name>
1uui_lig

>  <RI>
0

>  <Rbt.Current_Directory>
/home/itssahil/PROJECTS/Mol_Feturizer/New_Systems/rnas/1uui

>  <Rbt.Executable>
rbdock ($Id: //depot/dev/client3/rdock/2013.1/src/exe/rbdock.cxx#4 $)

>  <Rbt.Library>
libRbt.so (2013.1, Build901 2013/11/27)

>  <Rbt.Parameter_File>
/export/apps/rDock/src/rDock_2013.1_src/data/scripts/dock_solv.prm

>  <Rbt.Receptor>
prm/pocket_docking_7.prm

>  <SCORE>
-27.4939

>  <SCORE.INTER>
-20.4213

>  <SCORE.INTER.CONST>
1

>  <SCORE.INTER.POLAR>
-2.52619

>  <SCORE.INTER.ROT>
10

>  <SCORE.INTER.SOLV>
5.01226

>  <SCORE.INTER.VDW>
-17.131

>  <SCORE.INTER.norm>
-0.887882

>  <SCORE.INTRA>
-7.07262

>  <SCORE.INTRA.DIHEDRAL>
-8.76833

>  <SCORE.INTRA.DIHEDRAL.0>
23.4151

>  <SCORE.INTRA.POLAR>
-1

>  <SCORE.INTRA.POLAR.0>
0

>  <SCORE.INTRA.REPUL>
0.55497

>  <SCORE.INTRA.REPUL.0>
0

>  <SCORE.INTRA.SOLV>
0.756001

>  <SCORE.INTRA.SOLV.lig_0>
-17.3568

>  <SCORE.INTRA.VDW>
-2.44131

>  <SCORE.INTRA.VDW.0>
1.0768

>  <SCORE.INTRA.norm>
-0.307505

>  <SCORE.RESTR>
0

>  <SCORE.RESTR.CAVITY>
0

>  <SCORE.RESTR.norm>
0

>  <SCORE.SYSTEM>
0

>  <SCORE.SYSTEM.CONST>
0

>  <SCORE.SYSTEM.DIHEDRAL>
0

>  <SCORE.SYSTEM.SOLV>
0

>  <SCORE.SYSTEM.norm>
0

>  <SCORE.heavy>
23

>  <SCORE.norm>
-1.19539

>  <RMSD>
6.005

$$$$
1uui_lig
 OpenBabel11021811413D
libRbt.so/2013.1/901 2013/11/27
 23 24  0  0  0  0  0  0  0  0999 V2000
   -7.2582    0.8860   -0.2310 C   0  0  0  0  0  0  0  0  0  0  0  0
   -8.8095    1.0981   -2.6805 O   0  0  0  0  0  0  0  0  0  0  0  0
  -10.9773    3.4163    2.0556 O   0  0  0  0  0  0  0  0  0  0  0  0
   -8.1526    2.1010   -3.4658 C   0  0  0  0  0  0  0  0  0  0  0  0
  -10.8734    4.8404    1.9832 C   0  0  0  0  0  0  0  0  0  0  0  0
   -7.3914   -0.5086   -0.7664 N   0  0  0  0  0  0  0  0  0  0  0  0
   -7.4027    1.4247   -4.6144 C   0  0  0  0  0  0  0  0  0  0  0  0
   -8.1298   -1.3834    0.1846 C   0  0  0  0  0  0  0  0  0  0  0  0
   -6.0563   -1.0990   -1.0486 C   0  0  0  0  0  0  0  0  0  0  0  0
   -6.2445    0.5873   -4.0626 C   0  0  0  0  0  0  0  0  0  0  0  0
   -7.4077   -1.5002    1.5377 C   0  0  0  0  0  0  0  0  0  0  0  0
   -5.1839   -1.1595    0.2169 C   0  0  0  0  0  0  0  0  0  0  0  0
   -5.7846   -0.3634   -5.0994 N   0  0  0  0  0  0  0  0  0  0  0  0
   -5.9946   -1.0131    1.4657 N   0  0  0  0  0  0  0  0  0  0  0  0
   -5.3426   -0.6447    2.6573 C   0  0  0  0  0  0  0  0  0  0  0  0
   -5.4998    0.6045    3.1804 N   0  0  0  0  0  0  0  0  0  0  0  0
   -4.4364   -1.4795    3.2416 N   0  0  0  0  0  0  0  0  0  0  0  0
   -9.3496    1.6824   -1.4917 C   0  0  0  0  0  0  0  0  0  0  0  0
   -8.6276    1.6033   -0.2696 C   0  0  0  0  0  0  0  0  0  0  0  0
   -9.1709    2.1819    0.9111 C   0  0  0  0  0  0  0  0  0  0  0  0
  -10.4317    2.8367    0.8671 C   0  0  0  0  0  0  0  0  0  0  0  0
  -11.1496    2.9151   -0.3551 C   0  0  0  0  0  0  0  0  0  0  0  0
  -10.6090    2.3370   -1.5337 C   0  0  0  0  0  0  0  0  0  0  0  0
  2  4  1  0  0  0  0
  3  5  1  0  0  0  0
  4  7  1  0  0  0  0
  6  1  1  0  0  0  0
  7 10  1  0  0  0  0
  8  6  1  0  0  0  0
  8 11  1  0  0  0  0
  9  6  1  0  0  0  0
 10 13  1  0  0  0  0
 11 14  1  0  0  0  0
 12  9  1  0  0  0  0
 14 12  1  0  0  0  0
 14 15  1  0  0  0  0
 15 16  1  0  0  0  0
 15 17  1  0  0  0  0
 18  2  1  0  0  0  0
 18 23  2  0  0  0  0
 19  1  1  0  0  0  0
 19 18  1  0  0  0  0
 20 19  2  0  0  0  0
 21  3  1  0  0  0  0
 21 20  1  0  0  0  0
 22 21  2  0  0  0  0
 22 23  1  0  0  0  0
M  END
>  <CHROM.1>
171.40089301,-67.13661459,-71.65608747,163.29501953,55.31386787,-84.25257281
90.22260482,-174.91276578,-97.48062575,-54.67919160,106.30576112,-7.77079161
0.80674594,-0.32523158,0.22697951,-0.69929400,1.58024353

>  <Name>
1uui_lig

>  <RI>
0

>  <Rbt.Current_Directory>
/home/itssahil/PROJECTS/Mol_Feturizer/New_Systems/rnas/1uui

>  <Rbt.Executable>
rbdock ($Id: //depot/dev/client3/rdock/2013.1/src/exe/rbdock.cxx#4 $)

>  <Rbt.Library>
libRbt.so (2013.1, Build901 2013/11/27)

>  <Rbt.Parameter_File>
/export/apps/rDock/src/rDock_2013.1_src/data/scripts/dock_solv.prm

>  <Rbt.Receptor>
prm/pocket_docking_6.prm

>  <SCORE>
-31.4312

>  <SCORE.INTER>
-21.3607

>  <SCORE.INTER.CONST>
1

>  <SCORE.INTER.POLAR>
-3.41636

>  <SCORE.INTER.ROT>
10

>  <SCORE.INTER.SOLV>
6.15663

>  <SCORE.INTER.VDW>
-15.1715

>  <SCORE.INTER.norm>
-0.928728

>  <SCORE.INTRA>
-10.1859

>  <SCORE.INTRA.DIHEDRAL>
-8.06364

>  <SCORE.INTRA.DIHEDRAL.0>
23.4151

>  <SCORE.INTRA.POLAR>
-0.643857

>  <SCORE.INTRA.POLAR.0>
0

>  <SCORE.INTRA.REPUL>
0

>  <SCORE.INTRA.REPUL.0>
0

>  <SCORE.INTRA.SOLV>
0.423538

>  <SCORE.INTRA.SOLV.lig_0>
-17.3568

>  <SCORE.INTRA.VDW>
-4.17675

>  <SCORE.INTRA.VDW.0>
1.0768

>  <SCORE.INTRA.norm>
-0.442866

>  <SCORE.RESTR>
0.115427

>  <SCORE.RESTR.CAVITY>
0.115427

>  <SCORE.RESTR.norm>
0.00501855

>  <SCORE.SYSTEM>
0

>  <SCORE.SYSTEM.CONST>
0

>  <SCORE.SYSTEM.DIHEDRAL>
0

>  <SCORE.SYSTEM.SOLV>
0

>  <SCORE.SYSTEM.norm>
0

>  <SCORE.heavy>
23

>  <SCORE.norm>
-1.36658

>  <RMSD>
6.012

$$$$
1uui_lig
 OpenBabel11021811413D
libRbt.so/2013.1/901 2013/11/27
 23 24  0  0  0  0  0  0  0  0999 V2000
  -11.5628    0.7969   -0.5003 C   0  0  0  0  0  0  0  0  0  0  0  0
   -9.9938    0.6183    1.9405 O   0  0  0  0  0  0  0  0  0  0  0  0
  -15.6188   -0.2294    2.3207 O   0  0  0  0  0  0  0  0  0  0  0  0
   -9.3372   -0.5904    1.5378 C   0  0  0  0  0  0  0  0  0  0  0  0
  -16.3000    1.0149    2.1424 C   0  0  0  0  0  0  0  0  0  0  0  0
  -10.5146    1.8574   -0.3386 N   0  0  0  0  0  0  0  0  0  0  0  0
   -7.8904   -0.2708    1.1588 C   0  0  0  0  0  0  0  0  0  0  0  0
  -11.1174    3.2179   -0.3492 C   0  0  0  0  0  0  0  0  0  0  0  0
   -9.4909    1.7604   -1.4125 C   0  0  0  0  0  0  0  0  0  0  0  0
   -7.3722   -1.3037    0.1530 C   0  0  0  0  0  0  0  0  0  0  0  0
  -11.8419    3.5157   -1.6730 C   0  0  0  0  0  0  0  0  0  0  0  0
  -10.1161    1.9224   -2.8085 C   0  0  0  0  0  0  0  0  0  0  0  0
   -7.7143   -2.6650    0.6224 N   0  0  0  0  0  0  0  0  0  0  0  0
  -11.4782    2.5380   -2.7461 N   0  0  0  0  0  0  0  0  0  0  0  0
  -12.3398    2.3899   -3.8489 C   0  0  0  0  0  0  0  0  0  0  0  0
  -12.1187    1.4196   -4.7809 N   0  0  0  0  0  0  0  0  0  0  0  0
  -13.3334    3.2943   -4.0824 N   0  0  0  0  0  0  0  0  0  0  0  0
  -11.4048    0.4022    2.0329 C   0  0  0  0  0  0  0  0  0  0  0  0
  -12.2135    0.4800    0.8662 C   0  0  0  0  0  0  0  0  0  0  0  0
  -13.6170    0.2687    0.9637 C   0  0  0  0  0  0  0  0  0  0  0  0
  -14.2072   -0.0191    2.2243 C   0  0  0  0  0  0  0  0  0  0  0  0
  -13.3967   -0.0974    3.3872 C   0  0  0  0  0  0  0  0  0  0  0  0
  -11.9961    0.1143    3.2914 C   0  0  0  0  0  0  0  0  0  0  0  0
  2  4  1  0  0  0  0
  3  5  1  0  0  0  0
  4  7  1  0  0  0  0
  6  1  1  0  0  0  0
  7 10  1  0  0  0  0
  8  6  1  0  0  0  0
  8 11  1  0  0  0  0
  9  6  1  0  0  0  0
 10 13  1  0  0  0  0
 11 14  1  0  0  0  0
 12  9  1  0  0  0  0
 14 12  1  0  0  0  0
 14 15  1  0  0  0  0
 15 16  1  0  0  0  0
 15 17  1  0  0  0  0
 18  2  1  0  0  0  0
 18 23  2  0  0  0  0
 19  1  1  0  0  0  0
 19 18  1  0  0  0  0
 20 19  2  0  0  0  0
 21  3  1  0  0  0  0
 21 20  1  0  0  0  0
 22 21  2  0  0  0  0
 22 23  1  0  0  0  0
M  END
>  <CHROM.1>
168.07887094,-153.71153868,-83.34433887,-47.05759491,-170.78388803,-173.42477122
153.48582631,105.44894733,-83.28641600,-40.65248456,-71.75517158,-11.49218411
0.87889761,-0.05495824,1.55098568,0.27028700,-1.09174741

>  <Name>
1uui_lig

>  <RI>
0

>  <Rbt.Current_Directory>
/home/itssahil/PROJECTS/Mol_Feturizer/New_Systems/rnas/1uui

>  <Rbt.Executable>
rbdock ($Id: //depot/dev/client3/rdock/2013.1/src/exe/rbdock.cxx#4 $)

>  <Rbt.Library>
libRbt.so (2013.1, Build901 2013/11/27)

>  <Rbt.Parameter_File>
/export/apps/rDock/src/rDock_2013.1_src/data/scripts/dock_solv.prm

>  <Rbt.Receptor>
prm/pocket_docking_4.prm

>  <SCORE>
-22.8965

>  <SCORE.INTER>
-17.4685

>  <SCORE.INTER.CONST>
1

>  <SCORE.INTER.POLAR>
-2.9592

>  <SCORE.INTER.ROT>
10

>  <SCORE.INTER.SOLV>
8.95334

>  <SCORE.INTER.VDW>
-15.0328

>  <SCORE.INTER.norm>
-0.759499

>  <SCORE.INTRA>
-5.60895

>  <SCORE.INTRA.DIHEDRAL>
-4.97735

>  <SCORE.INTRA.DIHEDRAL.0>
23.4151

>  <SCORE.INTRA.POLAR>
-0.673595

>  <SCORE.INTRA.POLAR.0>
0

>  <SCORE.INTRA.REPUL>
0

>  <SCORE.INTRA.REPUL.0>
0

>  <SCORE.INTRA.SOLV>
0.489308

>  <SCORE.INTRA.SOLV.lig_0>
-17.3568

>  <SCORE.INTRA.VDW>
-1.07471

>  <SCORE.INTRA.VDW.0>
1.0768

>  <SCORE.INTRA.norm>
-0.243867

>  <SCORE.RESTR>
0.180919

>  <SCORE.RESTR.CAVITY>
0.180919

>  <SCORE.RESTR.norm>
0.00786605

>  <SCORE.SYSTEM>
0

>  <SCORE.SYSTEM.CONST>
0

>  <SCORE.SYSTEM.DIHEDRAL>
0

>  <SCORE.SYSTEM.SOLV>
0

>  <SCORE.SYSTEM.norm>
0

>  <SCORE.heavy>
23

>  <SCORE.norm>
-0.995501

>  <RMSD>
6.013

$$$$
1uui_lig
 OpenBabel11021811413D
libRbt.so/2013.1/901 2013/11/27
 23 24  0  0  0  0  0  0  0  0999 V2000
   -8.4717    1.3480   -0.5888 C   0  0  0  0  0  0  0  0  0  0  0  0
   -6.3725    2.6855   -2.0907 O   0  0  0  0  0  0  0  0  0  0  0  0
  -11.4761    5.2117   -1.8165 O   0  0  0  0  0  0  0  0  0  0  0  0
   -5.7379    3.0032   -3.3359 C   0  0  0  0  0  0  0  0  0  0  0  0
  -12.3734    4.5696   -2.7256 C   0  0  0  0  0  0  0  0  0  0  0  0
   -8.7192    1.4834    0.8843 N   0  0  0  0  0  0  0  0  0  0  0  0
   -6.4171    2.2166   -4.4580 C   0  0  0  0  0  0  0  0  0  0  0  0
   -7.4647    1.8126    1.6140 C   0  0  0  0  0  0  0  0  0  0  0  0
   -9.3040    0.2353    1.4416 C   0  0  0  0  0  0  0  0  0  0  0  0
   -6.2128    0.7137   -4.2418 C   0  0  0  0  0  0  0  0  0  0  0  0
   -6.3981    0.7169    1.4475 C   0  0  0  0  0  0  0  0  0  0  0  0
   -8.3747   -0.9716    1.2272 C   0  0  0  0  0  0  0  0  0  0  0  0
   -6.3423    0.0066   -5.5356 N   0  0  0  0  0  0  0  0  0  0  0  0
   -6.9752   -0.5527    0.9045 N   0  0  0  0  0  0  0  0  0  0  0  0
   -6.1133   -1.4828    0.2940 C   0  0  0  0  0  0  0  0  0  0  0  0
   -4.8042   -1.1761    0.0680 N   0  0  0  0  0  0  0  0  0  0  0  0
   -6.5967   -2.6558   -0.2058 N   0  0  0  0  0  0  0  0  0  0  0  0
   -7.6527    3.3193   -2.0173 C   0  0  0  0  0  0  0  0  0  0  0  0
   -8.7106    2.7029   -1.2948 C   0  0  0  0  0  0  0  0  0  0  0  0
   -9.9834    3.3348   -1.2283 C   0  0  0  0  0  0  0  0  0  0  0  0
  -10.1951    4.5787   -1.8829 C   0  0  0  0  0  0  0  0  0  0  0  0
   -9.1364    5.1924   -2.6025 C   0  0  0  0  0  0  0  0  0  0  0  0
   -7.8660    4.5621   -2.6704 C   0  0  0  0  0  0  0  0  0  0  0  0
  2  4  1  0  0  0  0
  3  5  1  0  0  0  0
  4  7  1  0  0  0  0
  6  1  1  0  0  0  0
  7 10  1  0  0  0  0
  8  6  1  0  0  0  0
  8 11  1  0  0  0  0
  9  6  1  0  0  0  0
 10 13  1  0  0  0  0
 11 14  1  0  0  0  0
 12  9  1  0  0  0  0
 14 12  1  0  0  0  0
 14 15  1  0  0  0  0
 15 16  1  0  0  0  0
 15 17  1  0  0  0  0
 18  2  1  0  0  0  0
 18 23  2  0  0  0  0
 19  1  1  0  0  0  0
 19 18  1  0  0  0  0
 20 19  2  0  0  0  0
 21  3  1  0  0  0  0
 21 20  1  0  0  0  0
 22 21  2  0  0  0  0
 22 23  1  0  0  0  0
M  END
>  <CHROM.1>
-74.05841781,-63.75999141,-92.33762509,-156.40546395,68.39629744,-7.08597808
120.84716178,51.55205266,148.78203303,120.36382149,-77.73983123,-7.86555626
1.70120193,-1.27580832,0.83870531,-0.73593854,2.13251291

>  <Name>
1uui_lig

>  <RI>
0

>  <Rbt.Current_Directory>
/home/itssahil/PROJECTS/Mol_Feturizer/New_Systems/rnas/1uui

>  <Rbt.Executable>
rbdock ($Id: //depot/dev/client3/rdock/2013.1/src/exe/rbdock.cxx#4 $)

>  <Rbt.Library>
libRbt.so (2013.1, Build901 2013/11/27)

>  <Rbt.Parameter_File>
/export/apps/rDock/src/rDock_2013.1_src/data/scripts/dock_solv.prm

>  <Rbt.Receptor>
prm/pocket_docking_7.prm

>  <SCORE>
-25.4715

>  <SCORE.INTER>
-22.3022

>  <SCORE.INTER.CONST>
1

>  <SCORE.INTER.POLAR>
-4.6499

>  <SCORE.INTER.ROT>
10

>  <SCORE.INTER.SOLV>
4.03278

>  <SCORE.INTER.VDW>
-10.9794

>  <SCORE.INTER.norm>
-0.96966

>  <SCORE.INTRA>
-3.16937

>  <SCORE.INTRA.DIHEDRAL>
-8.10128

>  <SCORE.INTRA.DIHEDRAL.0>
23.4151

>  <SCORE.INTRA.POLAR>
0

>  <SCORE.INTRA.POLAR.0>
0

>  <SCORE.INTRA.REPUL>
0

>  <SCORE.INTRA.REPUL.0>
0

>  <SCORE.INTRA.SOLV>
0.0458306

>  <SCORE.INTRA.SOLV.lig_0>
-17.3568

>  <SCORE.INTRA.VDW>
0.858354

>  <SCORE.INTRA.VDW.0>
1.0768

>  <SCORE.INTRA.norm>
-0.137799

>  <SCORE.RESTR>
0

>  <SCORE.RESTR.CAVITY>
0

>  <SCORE.RESTR.norm>
0

>  <SCORE.SYSTEM>
0

>  <SCORE.SYSTEM.CONST>
0

>  <SCORE.SYSTEM.DIHEDRAL>
0

>  <SCORE.SYSTEM.SOLV>
0

>  <SCORE.SYSTEM.norm>
0

>  <SCORE.heavy>
23

>  <SCORE.norm>
-1.10746

>  <RMSD>
6.022

$$$$
1uui_lig
 OpenBabel11021811413D
libRbt.so/2013.1/901 2013/11/27
 23 24  0  0  0  0  0  0  0  0999 V2000
   -6.2889   -0.4563   -0.5565 C   0  0  0  0  0  0  0  0  0  0  0  0
   -3.8263   -1.9467   -0.9634 O   0  0  0  0  0  0  0  0  0  0  0  0
   -6.4389    0.1889   -5.5588 O   0  0  0  0  0  0  0  0  0  0  0  0
   -3.7943   -3.3773   -1.0426 C   0  0  0  0  0  0  0  0  0  0  0  0
   -6.4463    1.6168   -5.4861 C   0  0  0  0  0  0  0  0  0  0  0  0
   -7.3659   -1.4668   -0.2951 N   0  0  0  0  0  0  0  0  0  0  0  0
   -2.8059   -3.9134   -0.0059 C   0  0  0  0  0  0  0  0  0  0  0  0
   -8.7053   -0.8219   -0.2249 C   0  0  0  0  0  0  0  0  0  0  0  0
   -7.1050   -2.2065    0.9680 C   0  0  0  0  0  0  0  0  0  0  0  0
   -3.3714   -3.7216    1.4050 C   0  0  0  0  0  0  0  0  0  0  0  0
   -8.7875    0.2106    0.9123 C   0  0  0  0  0  0  0  0  0  0  0  0
   -7.0422   -1.2587    2.1778 C   0  0  0  0  0  0  0  0  0  0  0  0
   -2.2632   -3.7256    2.3860 N   0  0  0  0  0  0  0  0  0  0  0  0
   -7.6543    0.0736    1.8802 N   0  0  0  0  0  0  0  0  0  0  0  0
   -7.3306    1.1673    2.7045 C   0  0  0  0  0  0  0  0  0  0  0  0
   -8.2057    2.1999    2.8684 N   0  0  0  0  0  0  0  0  0  0  0  0
   -6.0857    1.2841    3.2489 N   0  0  0  0  0  0  0  0  0  0  0  0
   -4.4815   -1.4066   -2.1146 C   0  0  0  0  0  0  0  0  0  0  0  0
   -5.6890   -0.6710   -1.9654 C   0  0  0  0  0  0  0  0  0  0  0  0
   -6.3394   -0.1397   -3.1136 C   0  0  0  0  0  0  0  0  0  0  0  0
   -5.7825   -0.3445   -4.4052 C   0  0  0  0  0  0  0  0  0  0  0  0
   -4.5760   -1.0784   -4.5508 C   0  0  0  0  0  0  0  0  0  0  0  0
   -3.9266   -1.6101   -3.4057 C   0  0  0  0  0  0  0  0  0  0  0  0
  2  4  1  0  0  0  0
  3  5  1  0  0  0  0
  4  7  1  0  0  0  0
  6  1  1  0  0  0  0
  7 10  1  0  0  0  0
  8  6  1  0  0  0  0
  8 11  1  0  0  0  0
  9  6  1  0  0  0  0
 10 13  1  0  0  0  0
 11 14  1  0  0  0  0
 12  9  1  0  0  0  0
 14 12  1  0  0  0  0
 14 15  1  0  0  0  0
 15 16  1  0  0  0  0
 15 17  1  0  0  0  0
 18  2  1  0  0  0  0
 18 23  2  0  0  0  0
 19  1  1  0  0  0  0
 19 18  1  0  0  0  0
 20 19  2  0  0  0  0
 21  3  1  0  0  0  0
 21 20  1  0  0  0  0
 22 21  2  0  0  0  0
 22 23  1  0  0  0  0
M  END
>  <CHROM.1>
166.10336772,70.54422031,-111.99048021,-157.78150431,-169.93873034,15.96390093
-153.76130483,136.29423860,117.04566778,-97.66216563,63.94086608,-5.83067081
-0.92496236,-0.57062327,1.83413885,-0.72955503,1.71045270

>  <Name>
1uui_lig

>  <RI>
0

>  <Rbt.Current_Directory>
/home/itssahil/PROJECTS/Mol_Feturizer/New_Systems/rnas/1uui

>  <Rbt.Executable>
rbdock ($Id: //depot/dev/client3/rdock/2013.1/src/exe/rbdock.cxx#4 $)

>  <Rbt.Library>
libRbt.so (2013.1, Build901 2013/11/27)

>  <Rbt.Parameter_File>
/export/apps/rDock/src/rDock_2013.1_src/data/scripts/dock_solv.prm

>  <Rbt.Receptor>
prm/pocket_docking_8.prm

>  <SCORE>
-31.0589

>  <SCORE.INTER>
-27.1078

>  <SCORE.INTER.CONST>
1

>  <SCORE.INTER.POLAR>
-2.45091

>  <SCORE.INTER.ROT>
10

>  <SCORE.INTER.SOLV>
9.60615

>  <SCORE.INTER.VDW>
-23.3709

>  <SCORE.INTER.norm>
-1.1786

>  <SCORE.INTRA>
-3.95109

>  <SCORE.INTRA.DIHEDRAL>
-4.80106

>  <SCORE.INTRA.DIHEDRAL.0>
23.4151

>  <SCORE.INTRA.POLAR>
0

>  <SCORE.INTRA.POLAR.0>
0

>  <SCORE.INTRA.REPUL>
0

>  <SCORE.INTRA.REPUL.0>
0

>  <SCORE.INTRA.SOLV>
0.129748

>  <SCORE.INTRA.SOLV.lig_0>
-17.3568

>  <SCORE.INTRA.VDW>
-1.61543

>  <SCORE.INTRA.VDW.0>
1.0768

>  <SCORE.INTRA.norm>
-0.171787

>  <SCORE.RESTR>
0

>  <SCORE.RESTR.CAVITY>
0

>  <SCORE.RESTR.norm>
0

>  <SCORE.SYSTEM>
0

>  <SCORE.SYSTEM.CONST>
0

>  <SCORE.SYSTEM.DIHEDRAL>
0

>  <SCORE.SYSTEM.SOLV>
0

>  <SCORE.SYSTEM.norm>
0

>  <SCORE.heavy>
23

>  <SCORE.norm>
-1.35039

>  <RMSD>
6.042

$$$$
1uui_lig
 OpenBabel11021811413D
libRbt.so/2013.1/901 2013/11/27
 23 24  0  0  0  0  0  0  0  0999 V2000
  -12.9944   -0.2545    2.0899 C   0  0  0  0  0  0  0  0  0  0  0  0
  -13.5441    0.7347   -0.5879 O   0  0  0  0  0  0  0  0  0  0  0  0
  -16.1243   -4.0755    1.0577 O   0  0  0  0  0  0  0  0  0  0  0  0
  -14.3821    1.4535   -1.5018 C   0  0  0  0  0  0  0  0  0  0  0  0
  -17.4891   -3.8005    1.3829 C   0  0  0  0  0  0  0  0  0  0  0  0
  -13.1996    1.2276    1.9862 N   0  0  0  0  0  0  0  0  0  0  0  0
  -13.6085    2.6528   -2.0518 C   0  0  0  0  0  0  0  0  0  0  0  0
  -12.0149    1.9729    2.4920 C   0  0  0  0  0  0  0  0  0  0  0  0
  -14.4099    1.6503    2.7392 C   0  0  0  0  0  0  0  0  0  0  0  0
  -14.5736    3.6356   -2.7223 C   0  0  0  0  0  0  0  0  0  0  0  0
  -11.7358    1.6716    3.9743 C   0  0  0  0  0  0  0  0  0  0  0  0
  -14.3040    1.2908    4.2311 C   0  0  0  0  0  0  0  0  0  0  0  0
  -14.4454    3.5281   -4.1929 N   0  0  0  0  0  0  0  0  0  0  0  0
  -12.8948    0.9984    4.6399 N   0  0  0  0  0  0  0  0  0  0  0  0
  -12.6696    0.2770    5.8271 C   0  0  0  0  0  0  0  0  0  0  0  0
  -12.4411    0.9257    7.0043 N   0  0  0  0  0  0  0  0  0  0  0  0
  -12.5414   -1.0804    5.8031 N   0  0  0  0  0  0  0  0  0  0  0  0
  -14.1933   -0.4699   -0.1715 C   0  0  0  0  0  0  0  0  0  0  0  0
  -13.9550   -0.9927    1.1290 C   0  0  0  0  0  0  0  0  0  0  0  0
  -14.5995   -2.1935    1.5371 C   0  0  0  0  0  0  0  0  0  0  0  0
  -15.4786   -2.8672    0.6462 C   0  0  0  0  0  0  0  0  0  0  0  0
  -15.7154   -2.3420   -0.6512 C   0  0  0  0  0  0  0  0  0  0  0  0
  -15.0720   -1.1443   -1.0600 C   0  0  0  0  0  0  0  0  0  0  0  0
  2  4  1  0  0  0  0
  3  5  1  0  0  0  0
  4  7  1  0  0  0  0
  6  1  1  0  0  0  0
  7 10  1  0  0  0  0
  8  6  1  0  0  0  0
  8 11  1  0  0  0  0
  9  6  1  0  0  0  0
 10 13  1  0  0  0  0
 11 14  1  0  0  0  0
 12  9  1  0  0  0  0
 14 12  1  0  0  0  0
 14 15  1  0  0  0  0
 15 16  1  0  0  0  0
 15 17  1  0  0  0  0
 18  2  1  0  0  0  0
 18 23  2  0  0  0  0
 19  1  1  0  0  0  0
 19 18  1  0  0  0  0
 20 19  2  0  0  0  0
 21  3  1  0  0  0  0
 21 20  1  0  0  0  0
 22 21  2  0  0  0  0
 22 23  1  0  0  0  0
M  END
>  <CHROM.1>
-173.77473620,-164.89717420,-159.58097700,-105.05635609,171.46589298,74.10624003
-123.42505935,-62.73671762,-148.58329559,40.41494817,103.44903727,-14.00371869
0.16632147,1.46976348,-1.09995673,-1.04263630,-1.00426994

>  <Name>
1uui_lig

>  <RI>
0

>  <Rbt.Current_Directory>
/home/itssahil/PROJECTS/Mol_Feturizer/New_Systems/rnas/1uui

>  <Rbt.Executable>
rbdock ($Id: //depot/dev/client3/rdock/2013.1/src/exe/rbdock.cxx#4 $)

>  <Rbt.Library>
libRbt.so (2013.1, Build901 2013/11/27)

>  <Rbt.Parameter_File>
/export/apps/rDock/src/rDock_2013.1_src/data/scripts/dock_solv.prm

>  <Rbt.Receptor>
prm/pocket_docking_6.prm

>  <SCORE>
-27.8111

>  <SCORE.INTER>
-21.0834

>  <SCORE.INTER.CONST>
1

>  <SCORE.INTER.POLAR>
-2.5908

>  <SCORE.INTER.ROT>
10

>  <SCORE.INTER.SOLV>
6.79387

>  <SCORE.INTER.VDW>
-17.9509

>  <SCORE.INTER.norm>
-0.91667

>  <SCORE.INTRA>
-6.72765

>  <SCORE.INTRA.DIHEDRAL>
-6.39086

>  <SCORE.INTRA.DIHEDRAL.0>
23.4151

>  <SCORE.INTRA.POLAR>
-0.830533

>  <SCORE.INTRA.POLAR.0>
0

>  <SCORE.INTRA.REPUL>
0

>  <SCORE.INTRA.REPUL.0>
0

>  <SCORE.INTRA.SOLV>
0.32293

>  <SCORE.INTRA.SOLV.lig_0>
-17.3568

>  <SCORE.INTRA.VDW>
-0.86987

>  <SCORE.INTRA.VDW.0>
1.0768

>  <SCORE.INTRA.norm>
-0.292506

>  <SCORE.RESTR>
0

>  <SCORE.RESTR.CAVITY>
0

>  <SCORE.RESTR.norm>
0

>  <SCORE.SYSTEM>
0

>  <SCORE.SYSTEM.CONST>
0

>  <SCORE.SYSTEM.DIHEDRAL>
0

>  <SCORE.SYSTEM.SOLV>
0

>  <SCORE.SYSTEM.norm>
0

>  <SCORE.heavy>
23

>  <SCORE.norm>
-1.20918

>  <RMSD>
6.046

$$$$
1uui_lig
 OpenBabel11021811413D
libRbt.so/2013.1/901 2013/11/27
 23 24  0  0  0  0  0  0  0  0999 V2000
   -7.6625    1.2784   -0.6778 C   0  0  0  0  0  0  0  0  0  0  0  0
   -4.8937    1.4080   -1.5546 O   0  0  0  0  0  0  0  0  0  0  0  0
   -8.2342    5.9076   -2.6029 O   0  0  0  0  0  0  0  0  0  0  0  0
   -4.0989    1.1121   -2.7099 C   0  0  0  0  0  0  0  0  0  0  0  0
   -8.5551    5.9464   -3.9956 C   0  0  0  0  0  0  0  0  0  0  0  0
   -8.4424    1.7004    0.5318 N   0  0  0  0  0  0  0  0  0  0  0  0
   -4.8110    0.0490   -3.5476 C   0  0  0  0  0  0  0  0  0  0  0  0
   -7.5515    1.8918    1.7084 C   0  0  0  0  0  0  0  0  0  0  0  0
   -9.4922    0.7008    0.8622 C   0  0  0  0  0  0  0  0  0  0  0  0
   -5.9998    0.6733   -4.2854 C   0  0  0  0  0  0  0  0  0  0  0  0
   -6.8171    0.5954    2.0905 C   0  0  0  0  0  0  0  0  0  0  0  0
   -8.8868   -0.6838    1.1493 C   0  0  0  0  0  0  0  0  0  0  0  0
   -6.2333   -0.0560   -5.5519 N   0  0  0  0  0  0  0  0  0  0  0  0
   -7.4204   -0.6074    1.4358 N   0  0  0  0  0  0  0  0  0  0  0  0
   -6.6456   -1.7764    1.3193 C   0  0  0  0  0  0  0  0  0  0  0  0
   -6.9709   -2.7409    0.4121 N   0  0  0  0  0  0  0  0  0  0  0  0
   -5.6354   -2.0325    2.1988 N   0  0  0  0  0  0  0  0  0  0  0  0
   -5.7327    2.5373   -1.8131 C   0  0  0  0  0  0  0  0  0  0  0  0
   -7.0941    2.5199   -1.4036 C   0  0  0  0  0  0  0  0  0  0  0  0
   -7.9259    3.6436   -1.6669 C   0  0  0  0  0  0  0  0  0  0  0  0
   -7.3959    4.7794   -2.3374 C   0  0  0  0  0  0  0  0  0  0  0  0
   -6.0358    4.7942   -2.7439 C   0  0  0  0  0  0  0  0  0  0  0  0
   -5.2050    3.6729   -2.4827 C   0  0  0  0  0  0  0  0  0  0  0  0
  2  4  1  0  0  0  0
  3  5  1  0  0  0  0
  4  7  1  0  0  0  0
  6  1  1  0  0  0  0
  7 10  1  0  0  0  0
  8  6  1  0  0  0  0
  8 11  1  0  0  0  0
  9  6  1  0  0  0  0
 10 13  1  0  0  0  0
 11 14  1  0  0  0  0
 12  9  1  0  0  0  0
 14 12  1  0  0  0  0
 14 15  1  0  0  0  0
 15 16  1  0  0  0  0
 15 17  1  0  0  0  0
 18  2  1  0  0  0  0
 18 23  2  0  0  0  0
 19  1  1  0  0  0  0
 19 18  1  0  0  0  0
 20 19  2  0  0  0  0
 21  3  1  0  0  0  0
 21 20  1  0  0  0  0
 22 21  2  0  0  0  0
 22 23  1  0  0  0  0
M  END
>  <CHROM.1>
-94.17793869,74.45675542,-84.96493683,150.44711089,-65.12149345,-160.41625288
18.51801511,-94.43750772,136.42177472,133.01792517,-106.41750283,-6.85977360
1.46574266,-1.12921027,1.60625804,-0.96027279,2.44950299

>  <Name>
1uui_lig

>  <RI>
0

>  <Rbt.Current_Directory>
/home/itssahil/PROJECTS/Mol_Feturizer/New_Systems/rnas/1uui

>  <Rbt.Executable>
rbdock ($Id: //depot/dev/client3/rdock/2013.1/src/exe/rbdock.cxx#4 $)

>  <Rbt.Library>
libRbt.so (2013.1, Build901 2013/11/27)

>  <Rbt.Parameter_File>
/export/apps/rDock/src/rDock_2013.1_src/data/scripts/dock_solv.prm

>  <Rbt.Receptor>
prm/pocket_docking_7.prm

>  <SCORE>
-30.9982

>  <SCORE.INTER>
-29.0057

>  <SCORE.INTER.CONST>
1

>  <SCORE.INTER.POLAR>
-5.61189

>  <SCORE.INTER.ROT>
10

>  <SCORE.INTER.SOLV>
6.28367

>  <SCORE.INTER.VDW>
-12.992

>  <SCORE.INTER.norm>
-1.26112

>  <SCORE.INTRA>
-1.99247

>  <SCORE.INTRA.DIHEDRAL>
-2.98676

>  <SCORE.INTRA.DIHEDRAL.0>
23.4151

>  <SCORE.INTRA.POLAR>
0

>  <SCORE.INTRA.POLAR.0>
0

>  <SCORE.INTRA.REPUL>
0.042756

>  <SCORE.INTRA.REPUL.0>
0

>  <SCORE.INTRA.SOLV>
0.0456974

>  <SCORE.INTRA.SOLV.lig_0>
-17.3568

>  <SCORE.INTRA.VDW>
-0.735722

>  <SCORE.INTRA.VDW.0>
1.0768

>  <SCORE.INTRA.norm>
-0.0866292

>  <SCORE.RESTR>
0

>  <SCORE.RESTR.CAVITY>
0

>  <SCORE.RESTR.norm>
0

>  <SCORE.SYSTEM>
0

>  <SCORE.SYSTEM.CONST>
0

>  <SCORE.SYSTEM.DIHEDRAL>
0

>  <SCORE.SYSTEM.SOLV>
0

>  <SCORE.SYSTEM.norm>
0

>  <SCORE.heavy>
23

>  <SCORE.norm>
-1.34775

>  <RMSD>
6.054

$$$$
1uui_lig
 OpenBabel11021811413D
libRbt.so/2013.1/901 2013/11/27
 23 24  0  0  0  0  0  0  0  0999 V2000
   -8.9981    1.7802   -0.9731 C   0  0  0  0  0  0  0  0  0  0  0  0
   -6.4288    2.8233   -1.8462 O   0  0  0  0  0  0  0  0  0  0  0  0
  -11.1233    5.6633   -3.3952 O   0  0  0  0  0  0  0  0  0  0  0  0
   -5.6482    2.5045   -3.0051 C   0  0  0  0  0  0  0  0  0  0  0  0
  -11.5363    6.5241   -2.3311 C   0  0  0  0  0  0  0  0  0  0  0  0
   -8.9361    2.1245    0.4854 N   0  0  0  0  0  0  0  0  0  0  0  0
   -6.4062    1.4815   -3.8524 C   0  0  0  0  0  0  0  0  0  0  0  0
   -7.5281    2.2415    0.9528 C   0  0  0  0  0  0  0  0  0  0  0  0
   -9.6467    1.1056    1.3023 C   0  0  0  0  0  0  0  0  0  0  0  0
   -7.3137    2.2015   -4.8550 C   0  0  0  0  0  0  0  0  0  0  0  0
   -6.7535    0.9239    0.7801 C   0  0  0  0  0  0  0  0  0  0  0  0
   -9.0354   -0.2942    1.1205 C   0  0  0  0  0  0  0  0  0  0  0  0
   -8.6600    1.5871   -4.8323 N   0  0  0  0  0  0  0  0  0  0  0  0
   -7.6646   -0.2355    0.5240 N   0  0  0  0  0  0  0  0  0  0  0  0
   -7.1358   -1.3944   -0.0740 C   0  0  0  0  0  0  0  0  0  0  0  0
   -7.2423   -1.5959   -1.4183 N   0  0  0  0  0  0  0  0  0  0  0  0
   -6.6263   -2.4018    0.6909 N   0  0  0  0  0  0  0  0  0  0  0  0
   -7.6078    3.5363   -2.2304 C   0  0  0  0  0  0  0  0  0  0  0  0
   -8.8869    3.0641   -1.8277 C   0  0  0  0  0  0  0  0  0  0  0  0
  -10.0569    3.7741   -2.2160 C   0  0  0  0  0  0  0  0  0  0  0  0
   -9.9456    4.9517   -3.0042 C   0  0  0  0  0  0  0  0  0  0  0  0
   -8.6669    5.4214   -3.4037 C   0  0  0  0  0  0  0  0  0  0  0  0
   -7.4986    4.7130   -3.0176 C   0  0  0  0  0  0  0  0  0  0  0  0
  2  4  1  0  0  0  0
  3  5  1  0  0  0  0
  4  7  1  0  0  0  0
  6  1  1  0  0  0  0
  7 10  1  0  0  0  0
  8  6  1  0  0  0  0
  8 11  1  0  0  0  0
  9  6  1  0  0  0  0
 10 13  1  0  0  0  0
 11 14  1  0  0  0  0
 12  9  1  0  0  0  0
 14 12  1  0  0  0  0
 14 15  1  0  0  0  0
 15 16  1  0  0  0  0
 15 17  1  0  0  0  0
 18  2  1  0  0  0  0
 18 23  2  0  0  0  0
 19  1  1  0  0  0  0
 19 18  1  0  0  0  0
 20 19  2  0  0  0  0
 21  3  1  0  0  0  0
 21 20  1  0  0  0  0
 22 21  2  0  0  0  0
 22 23  1  0  0  0  0
M  END
>  <CHROM.1>
-67.77274366,89.37603890,-84.47070386,-133.15484801,41.25835534,-96.42923198
-139.80666557,-37.67454283,125.62781655,89.38228989,82.74212966,-8.23076251
2.13319699,-1.58659536,1.08158808,-0.82100160,2.21727741

>  <Name>
1uui_lig

>  <RI>
0

>  <Rbt.Current_Directory>
/home/itssahil/PROJECTS/Mol_Feturizer/New_Systems/rnas/1uui

>  <Rbt.Executable>
rbdock ($Id: //depot/dev/client3/rdock/2013.1/src/exe/rbdock.cxx#4 $)

>  <Rbt.Library>
libRbt.so (2013.1, Build901 2013/11/27)

>  <Rbt.Parameter_File>
/export/apps/rDock/src/rDock_2013.1_src/data/scripts/dock_solv.prm

>  <Rbt.Receptor>
prm/pocket_docking_7.prm

>  <SCORE>
-24.5266

>  <SCORE.INTER>
-20.9708

>  <SCORE.INTER.CONST>
1

>  <SCORE.INTER.POLAR>
-4.31209

>  <SCORE.INTER.ROT>
10

>  <SCORE.INTER.SOLV>
5.71228

>  <SCORE.INTER.VDW>
-11.7777

>  <SCORE.INTER.norm>
-0.911775

>  <SCORE.INTRA>
-3.55581

>  <SCORE.INTRA.DIHEDRAL>
-1.28889

>  <SCORE.INTRA.DIHEDRAL.0>
23.4151

>  <SCORE.INTRA.POLAR>
0

>  <SCORE.INTRA.POLAR.0>
0

>  <SCORE.INTRA.REPUL>
0.0522003

>  <SCORE.INTRA.REPUL.0>
0

>  <SCORE.INTRA.SOLV>
0.923966

>  <SCORE.INTRA.SOLV.lig_0>
-17.3568

>  <SCORE.INTRA.VDW>
-3.63435

>  <SCORE.INTRA.VDW.0>
1.0768

>  <SCORE.INTRA.norm>
-0.1546

>  <SCORE.RESTR>
0

>  <SCORE.RESTR.CAVITY>
0

>  <SCORE.RESTR.norm>
0

>  <SCORE.SYSTEM>
0

>  <SCORE.SYSTEM.CONST>
0

>  <SCORE.SYSTEM.DIHEDRAL>
0

>  <SCORE.SYSTEM.SOLV>
0

>  <SCORE.SYSTEM.norm>
0

>  <SCORE.heavy>
23

>  <SCORE.norm>
-1.06638

>  <RMSD>
6.055

$$$$
1uui_lig
 OpenBabel11021811413D
libRbt.so/2013.1/901 2013/11/27
 23 24  0  0  0  0  0  0  0  0999 V2000
  -13.8044   -0.3449    3.0008 C   0  0  0  0  0  0  0  0  0  0  0  0
  -14.5434    1.2625    0.6939 O   0  0  0  0  0  0  0  0  0  0  0  0
  -10.6109    3.3564    4.2512 O   0  0  0  0  0  0  0  0  0  0  0  0
  -13.9112    0.6576   -0.4412 C   0  0  0  0  0  0  0  0  0  0  0  0
   -9.4136    3.6453    3.5252 C   0  0  0  0  0  0  0  0  0  0  0  0
  -15.0976   -0.1732    3.7409 N   0  0  0  0  0  0  0  0  0  0  0  0
  -14.9848    0.0597   -1.3517 C   0  0  0  0  0  0  0  0  0  0  0  0
  -15.5231   -1.4452    4.3857 C   0  0  0  0  0  0  0  0  0  0  0  0
  -16.1714    0.3044    2.8302 C   0  0  0  0  0  0  0  0  0  0  0  0
  -14.3476   -0.4489   -2.6487 C   0  0  0  0  0  0  0  0  0  0  0  0
  -15.7529   -2.5637    3.3550 C   0  0  0  0  0  0  0  0  0  0  0  0
  -16.4152   -0.6811    1.6746 C   0  0  0  0  0  0  0  0  0  0  0  0
  -15.4105   -0.7886   -3.6210 N   0  0  0  0  0  0  0  0  0  0  0  0
  -15.8406   -2.0330    1.9585 N   0  0  0  0  0  0  0  0  0  0  0  0
  -15.6150   -2.9126    0.8833 C   0  0  0  0  0  0  0  0  0  0  0  0
  -16.2866   -2.7617   -0.2936 N   0  0  0  0  0  0  0  0  0  0  0  0
  -14.8231   -4.0120    1.0378 N   0  0  0  0  0  0  0  0  0  0  0  0
  -13.5542    1.7841    1.5857 C   0  0  0  0  0  0  0  0  0  0  0  0
  -13.1609    1.0344    2.7279 C   0  0  0  0  0  0  0  0  0  0  0  0
  -12.1799    1.5593    3.6145 C   0  0  0  0  0  0  0  0  0  0  0  0
  -11.5958    2.8294    3.3576 C   0  0  0  0  0  0  0  0  0  0  0  0
  -11.9897    3.5750    2.2156 C   0  0  0  0  0  0  0  0  0  0  0  0
  -12.9694    3.0527    1.3307 C   0  0  0  0  0  0  0  0  0  0  0  0
  2  4  1  0  0  0  0
  3  5  1  0  0  0  0
  4  7  1  0  0  0  0
  6  1  1  0  0  0  0
  7 10  1  0  0  0  0
  8  6  1  0  0  0  0
  8 11  1  0  0  0  0
  9  6  1  0  0  0  0
 10 13  1  0  0  0  0
 11 14  1  0  0  0  0
 12  9  1  0  0  0  0
 14 12  1  0  0  0  0
 14 15  1  0  0  0  0
 15 16  1  0  0  0  0
 15 17  1  0  0  0  0
 18  2  1  0  0  0  0
 18 23  2  0  0  0  0
 19  1  1  0  0  0  0
 19 18  1  0  0  0  0
 20 19  2  0  0  0  0
 21  3  1  0  0  0  0
 21 20  1  0  0  0  0
 22 21  2  0  0  0  0
 22 23  1  0  0  0  0
M  END
>  <CHROM.1>
177.79832873,173.47854182,-162.18547076,-169.43713602,175.79258601,146.40335130
-9.22577262,131.65468848,-98.51052040,-84.83977974,123.41491093,-14.12470263
0.15169044,1.57845437,0.37103450,0.89940508,1.71396158

>  <Name>
1uui_lig

>  <RI>
0

>  <Rbt.Current_Directory>
/home/itssahil/PROJECTS/Mol_Feturizer/New_Systems/rnas/1uui

>  <Rbt.Executable>
rbdock ($Id: //depot/dev/client3/rdock/2013.1/src/exe/rbdock.cxx#4 $)

>  <Rbt.Library>
libRbt.so (2013.1, Build901 2013/11/27)

>  <Rbt.Parameter_File>
/export/apps/rDock/src/rDock_2013.1_src/data/scripts/dock_solv.prm

>  <Rbt.Receptor>
prm/pocket_docking_6.prm

>  <SCORE>
-22.9203

>  <SCORE.INTER>
-16.3614

>  <SCORE.INTER.CONST>
1

>  <SCORE.INTER.POLAR>
-2.26542

>  <SCORE.INTER.ROT>
10

>  <SCORE.INTER.SOLV>
7.37725

>  <SCORE.INTER.VDW>
-16.082

>  <SCORE.INTER.norm>
-0.711367

>  <SCORE.INTRA>
-6.55888

>  <SCORE.INTRA.DIHEDRAL>
-9.85996

>  <SCORE.INTRA.DIHEDRAL.0>
23.4151

>  <SCORE.INTRA.POLAR>
0

>  <SCORE.INTRA.POLAR.0>
0

>  <SCORE.INTRA.REPUL>
0

>  <SCORE.INTRA.REPUL.0>
0

>  <SCORE.INTRA.SOLV>
1.1675

>  <SCORE.INTRA.SOLV.lig_0>
-17.3568

>  <SCORE.INTRA.VDW>
-2.21265

>  <SCORE.INTRA.VDW.0>
1.0768

>  <SCORE.INTRA.norm>
-0.285169

>  <SCORE.RESTR>
0

>  <SCORE.RESTR.CAVITY>
0

>  <SCORE.RESTR.norm>
0

>  <SCORE.SYSTEM>
0

>  <SCORE.SYSTEM.CONST>
0

>  <SCORE.SYSTEM.DIHEDRAL>
0

>  <SCORE.SYSTEM.SOLV>
0

>  <SCORE.SYSTEM.norm>
0

>  <SCORE.heavy>
23

>  <SCORE.norm>
-0.996536

>  <RMSD>
6.119

$$$$
1uui_lig
 OpenBabel11021811413D
libRbt.so/2013.1/901 2013/11/27
 23 24  0  0  0  0  0  0  0  0999 V2000
  -10.1732    1.4473   -1.2722 C   0  0  0  0  0  0  0  0  0  0  0  0
  -11.3247    0.4992    1.2231 O   0  0  0  0  0  0  0  0  0  0  0  0
   -5.9188   -0.9053    0.0797 O   0  0  0  0  0  0  0  0  0  0  0  0
  -11.4342    0.9798    2.5689 C   0  0  0  0  0  0  0  0  0  0  0  0
   -5.0741   -0.4672    1.1468 C   0  0  0  0  0  0  0  0  0  0  0  0
  -11.2615    0.6223   -1.8921 N   0  0  0  0  0  0  0  0  0  0  0  0
  -12.2449   -0.0218    3.3928 C   0  0  0  0  0  0  0  0  0  0  0  0
  -11.5295    1.0476   -3.2928 C   0  0  0  0  0  0  0  0  0  0  0  0
  -12.5151    0.7135   -1.0979 C   0  0  0  0  0  0  0  0  0  0  0  0
  -12.3931    0.4824    4.8319 C   0  0  0  0  0  0  0  0  0  0  0  0
  -11.9915    2.5126   -3.3706 C   0  0  0  0  0  0  0  0  0  0  0  0
  -13.0192    2.1634   -0.9982 C   0  0  0  0  0  0  0  0  0  0  0  0
  -12.5431   -0.6715    5.7465 N   0  0  0  0  0  0  0  0  0  0  0  0
  -12.3968    3.0470   -2.0328 N   0  0  0  0  0  0  0  0  0  0  0  0
  -12.4254    4.4406   -1.8394 C   0  0  0  0  0  0  0  0  0  0  0  0
  -11.4854    5.2436   -2.4142 N   0  0  0  0  0  0  0  0  0  0  0  0
  -13.3094    5.0044   -0.9675 N   0  0  0  0  0  0  0  0  0  0  0  0
   -9.9673    0.1513    0.9359 C   0  0  0  0  0  0  0  0  0  0  0  0
   -9.3612    0.5914   -0.2725 C   0  0  0  0  0  0  0  0  0  0  0  0
   -8.0123    0.2391   -0.5559 C   0  0  0  0  0  0  0  0  0  0  0  0
   -7.2744   -0.5505    0.3672 C   0  0  0  0  0  0  0  0  0  0  0  0
   -7.8819   -0.9874    1.5736 C   0  0  0  0  0  0  0  0  0  0  0  0
   -9.2284   -0.6373    1.8570 C   0  0  0  0  0  0  0  0  0  0  0  0
  2  4  1  0  0  0  0
  3  5  1  0  0  0  0
  4  7  1  0  0  0  0
  6  1  1  0  0  0  0
  7 10  1  0  0  0  0
  8  6  1  0  0  0  0
  8 11  1  0  0  0  0
  9  6  1  0  0  0  0
 10 13  1  0  0  0  0
 11 14  1  0  0  0  0
 12  9  1  0  0  0  0
 14 12  1  0  0  0  0
 14 15  1  0  0  0  0
 15 16  1  0  0  0  0
 15 17  1  0  0  0  0
 18  2  1  0  0  0  0
 18 23  2  0  0  0  0
 19  1  1  0  0  0  0
 19 18  1  0  0  0  0
 20 19  2  0  0  0  0
 21  3  1  0  0  0  0
 21 20  1  0  0  0  0
 22 21  2  0  0  0  0
 22 23  1  0  0  0  0
M  END
>  <CHROM.1>
-112.51134165,-179.14300507,-147.31352789,-152.12452561,-173.06255277,-37.20556482
67.25758479,89.31822672,-133.06633119,-68.45746692,123.82328558,-10.60265540
1.11637855,0.19133091,-2.17493466,-0.43150565,2.02467090

>  <Name>
1uui_lig

>  <RI>
0

>  <Rbt.Current_Directory>
/home/itssahil/PROJECTS/Mol_Feturizer/New_Systems/rnas/1uui

>  <Rbt.Executable>
rbdock ($Id: //depot/dev/client3/rdock/2013.1/src/exe/rbdock.cxx#4 $)

>  <Rbt.Library>
libRbt.so (2013.1, Build901 2013/11/27)

>  <Rbt.Parameter_File>
/export/apps/rDock/src/rDock_2013.1_src/data/scripts/dock_solv.prm

>  <Rbt.Receptor>
prm/pocket_docking_2.prm

>  <SCORE>
-5.22772

>  <SCORE.INTER>
-7.09922

>  <SCORE.INTER.CONST>
1

>  <SCORE.INTER.POLAR>
-1.10941

>  <SCORE.INTER.ROT>
10

>  <SCORE.INTER.SOLV>
5.39441

>  <SCORE.INTER.VDW>
-13.0996

>  <SCORE.INTER.norm>
-0.308662

>  <SCORE.INTRA>
0.298627

>  <SCORE.INTRA.DIHEDRAL>
-1.64258

>  <SCORE.INTRA.DIHEDRAL.0>
23.4151

>  <SCORE.INTRA.POLAR>
0

>  <SCORE.INTRA.POLAR.0>
0

>  <SCORE.INTRA.REPUL>
0

>  <SCORE.INTRA.REPUL.0>
0

>  <SCORE.INTRA.SOLV>
0.228261

>  <SCORE.INTRA.SOLV.lig_0>
-17.3568

>  <SCORE.INTRA.VDW>
1.00579

>  <SCORE.INTRA.VDW.0>
1.0768

>  <SCORE.INTRA.norm>
0.0129838

>  <SCORE.RESTR>
1.57287

>  <SCORE.RESTR.CAVITY>
1.57287

>  <SCORE.RESTR.norm>
0.0683857

>  <SCORE.SYSTEM>
0

>  <SCORE.SYSTEM.CONST>
0

>  <SCORE.SYSTEM.DIHEDRAL>
0

>  <SCORE.SYSTEM.SOLV>
0

>  <SCORE.SYSTEM.norm>
0

>  <SCORE.heavy>
23

>  <SCORE.norm>
-0.227292

>  <RMSD>
6.166

$$$$
1uui_lig
 OpenBabel11021811413D
libRbt.so/2013.1/901 2013/11/27
 23 24  0  0  0  0  0  0  0  0999 V2000
  -13.2109   -0.8755    2.0854 C   0  0  0  0  0  0  0  0  0  0  0  0
  -14.2229   -0.5348   -0.6185 O   0  0  0  0  0  0  0  0  0  0  0  0
  -16.8411   -4.3167    2.7498 O   0  0  0  0  0  0  0  0  0  0  0  0
  -14.7132   -0.6542   -1.9599 C   0  0  0  0  0  0  0  0  0  0  0  0
  -17.5520   -3.6286    3.7819 C   0  0  0  0  0  0  0  0  0  0  0  0
  -13.3837    0.5799    1.7672 N   0  0  0  0  0  0  0  0  0  0  0  0
  -13.6629   -0.1052   -2.9267 C   0  0  0  0  0  0  0  0  0  0  0  0
  -12.1337    1.3424    2.0333 C   0  0  0  0  0  0  0  0  0  0  0  0
  -14.4997    1.1670    2.5548 C   0  0  0  0  0  0  0  0  0  0  0  0
  -13.4751    1.3979   -2.6974 C   0  0  0  0  0  0  0  0  0  0  0  0
  -11.7154    1.2634    3.5114 C   0  0  0  0  0  0  0  0  0  0  0  0
  -14.2544    1.0397    4.0680 C   0  0  0  0  0  0  0  0  0  0  0  0
  -12.6021    1.9536   -3.7555 N   0  0  0  0  0  0  0  0  0  0  0  0
  -12.8201    0.7532    4.3826 N   0  0  0  0  0  0  0  0  0  0  0  0
  -12.4970    0.2161    5.6426 C   0  0  0  0  0  0  0  0  0  0  0  0
  -12.0875    1.0248    6.6610 N   0  0  0  0  0  0  0  0  0  0  0  0
  -12.4564   -1.1334    5.8343 N   0  0  0  0  0  0  0  0  0  0  0  0
  -14.8807   -1.4803    0.2297 C   0  0  0  0  0  0  0  0  0  0  0  0
  -14.4211   -1.6820    1.5599 C   0  0  0  0  0  0  0  0  0  0  0  0
  -15.0756   -2.6267    2.3983 C   0  0  0  0  0  0  0  0  0  0  0  0
  -16.1854   -3.3659    1.9060 C   0  0  0  0  0  0  0  0  0  0  0  0
  -16.6427   -3.1613    0.5777 C   0  0  0  0  0  0  0  0  0  0  0  0
  -15.9896   -2.2196   -0.2603 C   0  0  0  0  0  0  0  0  0  0  0  0
  2  4  1  0  0  0  0
  3  5  1  0  0  0  0
  4  7  1  0  0  0  0
  6  1  1  0  0  0  0
  7 10  1  0  0  0  0
  8  6  1  0  0  0  0
  8 11  1  0  0  0  0
  9  6  1  0  0  0  0
 10 13  1  0  0  0  0
 11 14  1  0  0  0  0
 12  9  1  0  0  0  0
 14 12  1  0  0  0  0
 14 15  1  0  0  0  0
 15 16  1  0  0  0  0
 15 17  1  0  0  0  0
 18  2  1  0  0  0  0
 18 23  2  0  0  0  0
 19  1  1  0  0  0  0
 19 18  1  0  0  0  0
 20 19  2  0  0  0  0
 21  3  1  0  0  0  0
 21 20  1  0  0  0  0
 22 21  2  0  0  0  0
 22 23  1  0  0  0  0
M  END
>  <CHROM.1>
-156.77089246,-64.99002788,-169.57185340,-172.19030134,61.71189491,71.76986871
-20.00648712,-66.41409658,170.79990403,48.09457826,70.04427602,-14.10012157
-0.60517449,1.72372698,-1.41961651,-0.84912310,-1.40486687

>  <Name>
1uui_lig

>  <RI>
0

>  <Rbt.Current_Directory>
/home/itssahil/PROJECTS/Mol_Feturizer/New_Systems/rnas/1uui

>  <Rbt.Executable>
rbdock ($Id: //depot/dev/client3/rdock/2013.1/src/exe/rbdock.cxx#4 $)

>  <Rbt.Library>
libRbt.so (2013.1, Build901 2013/11/27)

>  <Rbt.Parameter_File>
/export/apps/rDock/src/rDock_2013.1_src/data/scripts/dock_solv.prm

>  <Rbt.Receptor>
prm/pocket_docking_5.prm

>  <SCORE>
-28.8593

>  <SCORE.INTER>
-21.5442

>  <SCORE.INTER.CONST>
1

>  <SCORE.INTER.POLAR>
-1.91955

>  <SCORE.INTER.ROT>
10

>  <SCORE.INTER.SOLV>
7.33229

>  <SCORE.INTER.VDW>
-20.6751

>  <SCORE.INTER.norm>
-0.936705

>  <SCORE.INTRA>
-7.35934

>  <SCORE.INTRA.DIHEDRAL>
-11.7495

>  <SCORE.INTRA.DIHEDRAL.0>
23.4151

>  <SCORE.INTRA.POLAR>
-0.703074

>  <SCORE.INTRA.POLAR.0>
0

>  <SCORE.INTRA.REPUL>
0

>  <SCORE.INTRA.REPUL.0>
0

>  <SCORE.INTRA.SOLV>
0.296535

>  <SCORE.INTRA.SOLV.lig_0>
-17.3568

>  <SCORE.INTRA.VDW>
0.757608

>  <SCORE.INTRA.VDW.0>
1.0768

>  <SCORE.INTRA.norm>
-0.319971

>  <SCORE.RESTR>
0.0442253

>  <SCORE.RESTR.CAVITY>
0.0442253

>  <SCORE.RESTR.norm>
0.00192284

>  <SCORE.SYSTEM>
0

>  <SCORE.SYSTEM.CONST>
0

>  <SCORE.SYSTEM.DIHEDRAL>
0

>  <SCORE.SYSTEM.SOLV>
0

>  <SCORE.SYSTEM.norm>
0

>  <SCORE.heavy>
23

>  <SCORE.norm>
-1.25475

>  <RMSD>
6.177

$$$$
1uui_lig
 OpenBabel11021811413D
libRbt.so/2013.1/901 2013/11/27
 23 24  0  0  0  0  0  0  0  0999 V2000
  -13.2636    0.6111   -0.9696 C   0  0  0  0  0  0  0  0  0  0  0  0
  -10.6543    0.9339    0.2708 O   0  0  0  0  0  0  0  0  0  0  0  0
  -14.5605   -2.1549    3.0465 O   0  0  0  0  0  0  0  0  0  0  0  0
   -9.7343    0.0711   -0.4098 C   0  0  0  0  0  0  0  0  0  0  0  0
  -15.3435   -1.2944    3.8776 C   0  0  0  0  0  0  0  0  0  0  0  0
  -13.6666    2.0436   -0.7822 N   0  0  0  0  0  0  0  0  0  0  0  0
   -8.6401   -0.3628    0.5668 C   0  0  0  0  0  0  0  0  0  0  0  0
  -14.4924    2.5253   -1.9228 C   0  0  0  0  0  0  0  0  0  0  0  0
  -12.4722    2.9161   -0.6316 C   0  0  0  0  0  0  0  0  0  0  0  0
   -7.6766   -1.3333   -0.1238 C   0  0  0  0  0  0  0  0  0  0  0  0
  -13.7282    2.4556   -3.2559 C   0  0  0  0  0  0  0  0  0  0  0  0
  -11.5552    2.8402   -1.8643 C   0  0  0  0  0  0  0  0  0  0  0  0
   -7.7540   -2.6573    0.5331 N   0  0  0  0  0  0  0  0  0  0  0  0
  -12.2580    2.2639   -3.0527 N   0  0  0  0  0  0  0  0  0  0  0  0
  -11.4873    1.7550   -4.1146 C   0  0  0  0  0  0  0  0  0  0  0  0
  -12.0720    1.4068   -5.2960 N   0  0  0  0  0  0  0  0  0  0  0  0
  -10.1644    1.4728   -3.9417 N   0  0  0  0  0  0  0  0  0  0  0  0
  -11.6347    0.1561    0.9636 C   0  0  0  0  0  0  0  0  0  0  0  0
  -12.9253   -0.0290    0.3967 C   0  0  0  0  0  0  0  0  0  0  0  0
  -13.8986   -0.7996    1.0915 C   0  0  0  0  0  0  0  0  0  0  0  0
  -13.5800   -1.3819    2.3485 C   0  0  0  0  0  0  0  0  0  0  0  0
  -12.2900   -1.1963    2.9113 C   0  0  0  0  0  0  0  0  0  0  0  0
  -11.3182   -0.4265    2.2193 C   0  0  0  0  0  0  0  0  0  0  0  0
  2  4  1  0  0  0  0
  3  5  1  0  0  0  0
  4  7  1  0  0  0  0
  6  1  1  0  0  0  0
  7 10  1  0  0  0  0
  8  6  1  0  0  0  0
  8 11  1  0  0  0  0
  9  6  1  0  0  0  0
 10 13  1  0  0  0  0
 11 14  1  0  0  0  0
 12  9  1  0  0  0  0
 14 12  1  0  0  0  0
 14 15  1  0  0  0  0
 15 16  1  0  0  0  0
 15 17  1  0  0  0  0
 18  2  1  0  0  0  0
 18 23  2  0  0  0  0
 19  1  1  0  0  0  0
 19 18  1  0  0  0  0
 20 19  2  0  0  0  0
 21  3  1  0  0  0  0
 21 20  1  0  0  0  0
 22 21  2  0  0  0  0
 22 23  1  0  0  0  0
M  END
>  <CHROM.1>
-84.49989429,177.65913322,-157.39523874,-115.81249481,56.34046641,-1.80538066
147.64808277,19.32262189,-100.17007850,-82.86864333,-88.46074225,-11.92088976
0.41665256,-0.40025816,1.46166366,0.28082745,-1.01610741

>  <Name>
1uui_lig

>  <RI>
0

>  <Rbt.Current_Directory>
/home/itssahil/PROJECTS/Mol_Feturizer/New_Systems/rnas/1uui

>  <Rbt.Executable>
rbdock ($Id: //depot/dev/client3/rdock/2013.1/src/exe/rbdock.cxx#4 $)

>  <Rbt.Library>
libRbt.so (2013.1, Build901 2013/11/27)

>  <Rbt.Parameter_File>
/export/apps/rDock/src/rDock_2013.1_src/data/scripts/dock_solv.prm

>  <Rbt.Receptor>
prm/pocket_docking_5.prm

>  <SCORE>
-32.1287

>  <SCORE.INTER>
-30.0062

>  <SCORE.INTER.CONST>
1

>  <SCORE.INTER.POLAR>
-4.47574

>  <SCORE.INTER.ROT>
10

>  <SCORE.INTER.SOLV>
11.101

>  <SCORE.INTER.VDW>
-19.052

>  <SCORE.INTER.norm>
-1.30462

>  <SCORE.INTRA>
-2.12253

>  <SCORE.INTRA.DIHEDRAL>
-0.545988

>  <SCORE.INTRA.DIHEDRAL.0>
23.4151

>  <SCORE.INTRA.POLAR>
0

>  <SCORE.INTRA.POLAR.0>
0

>  <SCORE.INTRA.REPUL>
0

>  <SCORE.INTRA.REPUL.0>
0

>  <SCORE.INTRA.SOLV>
0.588239

>  <SCORE.INTRA.SOLV.lig_0>
-17.3568

>  <SCORE.INTRA.VDW>
-2.14366

>  <SCORE.INTRA.VDW.0>
1.0768

>  <SCORE.INTRA.norm>
-0.0922841

>  <SCORE.RESTR>
0

>  <SCORE.RESTR.CAVITY>
0

>  <SCORE.RESTR.norm>
0

>  <SCORE.SYSTEM>
0

>  <SCORE.SYSTEM.CONST>
0

>  <SCORE.SYSTEM.DIHEDRAL>
0

>  <SCORE.SYSTEM.SOLV>
0

>  <SCORE.SYSTEM.norm>
0

>  <SCORE.heavy>
23

>  <SCORE.norm>
-1.3969

>  <RMSD>
6.199

$$$$
1uui_lig
 OpenBabel11021811413D
libRbt.so/2013.1/901 2013/11/27
 23 24  0  0  0  0  0  0  0  0999 V2000
  -10.3459   -0.0163    1.0331 C   0  0  0  0  0  0  0  0  0  0  0  0
  -12.2292    1.3185   -0.7340 O   0  0  0  0  0  0  0  0  0  0  0  0
  -14.3325   -1.5795    3.7023 O   0  0  0  0  0  0  0  0  0  0  0  0
  -12.5463    0.6377   -1.9547 C   0  0  0  0  0  0  0  0  0  0  0  0
  -14.2232   -0.7879    4.8878 C   0  0  0  0  0  0  0  0  0  0  0  0
   -9.9477    1.3579    0.5830 N   0  0  0  0  0  0  0  0  0  0  0  0
  -11.6203    1.1412   -3.0629 C   0  0  0  0  0  0  0  0  0  0  0  0
   -8.8536    1.2998   -0.4241 C   0  0  0  0  0  0  0  0  0  0  0  0
   -9.5159    2.1904    1.7367 C   0  0  0  0  0  0  0  0  0  0  0  0
  -11.7968    2.6519   -3.2467 C   0  0  0  0  0  0  0  0  0  0  0  0
   -7.5852    0.6392    0.1421 C   0  0  0  0  0  0  0  0  0  0  0  0
   -8.3156    1.5663    2.4688 C   0  0  0  0  0  0  0  0  0  0  0  0
  -13.1369    2.9276   -3.8111 N   0  0  0  0  0  0  0  0  0  0  0  0
   -7.6227    0.5356    1.6346 N   0  0  0  0  0  0  0  0  0  0  0  0
   -6.7855   -0.3998    2.2708 C   0  0  0  0  0  0  0  0  0  0  0  0
   -7.1041   -1.7254    2.2829 N   0  0  0  0  0  0  0  0  0  0  0  0
   -5.7111    0.0122    3.0024 N   0  0  0  0  0  0  0  0  0  0  0  0
  -12.7544    0.5940    0.3819 C   0  0  0  0  0  0  0  0  0  0  0  0
  -11.8723   -0.0756    1.2734 C   0  0  0  0  0  0  0  0  0  0  0  0
  -12.3995   -0.7987    2.3793 C   0  0  0  0  0  0  0  0  0  0  0  0
  -13.8041   -0.8505    2.5909 C   0  0  0  0  0  0  0  0  0  0  0  0
  -14.6823   -0.1798    1.6997 C   0  0  0  0  0  0  0  0  0  0  0  0
  -14.1573    0.5412    0.5950 C   0  0  0  0  0  0  0  0  0  0  0  0
  2  4  1  0  0  0  0
  3  5  1  0  0  0  0
  4  7  1  0  0  0  0
  6  1  1  0  0  0  0
  7 10  1  0  0  0  0
  8  6  1  0  0  0  0
  8 11  1  0  0  0  0
  9  6  1  0  0  0  0
 10 13  1  0  0  0  0
 11 14  1  0  0  0  0
 12  9  1  0  0  0  0
 14 12  1  0  0  0  0
 14 15  1  0  0  0  0
 15 16  1  0  0  0  0
 15 17  1  0  0  0  0
 18  2  1  0  0  0  0
 18 23  2  0  0  0  0
 19  1  1  0  0  0  0
 19 18  1  0  0  0  0
 20 19  2  0  0  0  0
 21  3  1  0  0  0  0
 21 20  1  0  0  0  0
 22 21  2  0  0  0  0
 22 23  1  0  0  0  0
M  END
>  <CHROM.1>
-161.57714497,-59.37399022,-143.63363804,-68.50638354,-29.09804183,-77.38902317
30.83517480,171.59636945,109.85616032,39.82019913,80.20187419,-10.88424925
0.49525229,0.82077129,0.41024784,0.06358392,2.01502712

>  <Name>
1uui_lig

>  <RI>
0

>  <Rbt.Current_Directory>
/home/itssahil/PROJECTS/Mol_Feturizer/New_Systems/rnas/1uui

>  <Rbt.Executable>
rbdock ($Id: //depot/dev/client3/rdock/2013.1/src/exe/rbdock.cxx#4 $)

>  <Rbt.Library>
libRbt.so (2013.1, Build901 2013/11/27)

>  <Rbt.Parameter_File>
/export/apps/rDock/src/rDock_2013.1_src/data/scripts/dock_solv.prm

>  <Rbt.Receptor>
prm/pocket_docking_3.prm

>  <SCORE>
-29.9971

>  <SCORE.INTER>
-22.8294

>  <SCORE.INTER.CONST>
1

>  <SCORE.INTER.POLAR>
-3.65389

>  <SCORE.INTER.ROT>
10

>  <SCORE.INTER.SOLV>
7.32081

>  <SCORE.INTER.VDW>
-15.7469

>  <SCORE.INTER.norm>
-0.992583

>  <SCORE.INTRA>
-7.16769

>  <SCORE.INTRA.DIHEDRAL>
-4.24651

>  <SCORE.INTRA.DIHEDRAL.0>
23.4151

>  <SCORE.INTRA.POLAR>
-0.755049

>  <SCORE.INTRA.POLAR.0>
0

>  <SCORE.INTRA.REPUL>
0

>  <SCORE.INTRA.REPUL.0>
0

>  <SCORE.INTRA.SOLV>
0.58059

>  <SCORE.INTRA.SOLV.lig_0>
-17.3568

>  <SCORE.INTRA.VDW>
-2.76757

>  <SCORE.INTRA.VDW.0>
1.0768

>  <SCORE.INTRA.norm>
-0.311639

>  <SCORE.RESTR>
0

>  <SCORE.RESTR.CAVITY>
0

>  <SCORE.RESTR.norm>
0

>  <SCORE.SYSTEM>
0

>  <SCORE.SYSTEM.CONST>
0

>  <SCORE.SYSTEM.DIHEDRAL>
0

>  <SCORE.SYSTEM.SOLV>
0

>  <SCORE.SYSTEM.norm>
0

>  <SCORE.heavy>
23

>  <SCORE.norm>
-1.30422

>  <RMSD>
6.216

$$$$
1uui_lig
 OpenBabel11021811413D
libRbt.so/2013.1/901 2013/11/27
 23 24  0  0  0  0  0  0  0  0999 V2000
  -11.7335    1.3418    0.4987 C   0  0  0  0  0  0  0  0  0  0  0  0
  -11.0899    3.4707    2.3709 O   0  0  0  0  0  0  0  0  0  0  0  0
   -7.1460   -0.5389    1.4368 O   0  0  0  0  0  0  0  0  0  0  0  0
  -12.0486    2.9987    3.3260 C   0  0  0  0  0  0  0  0  0  0  0  0
   -6.6279   -0.4026    0.1113 C   0  0  0  0  0  0  0  0  0  0  0  0
  -11.8549    0.0537   -0.2599 N   0  0  0  0  0  0  0  0  0  0  0  0
  -11.4206    3.0270    4.7203 C   0  0  0  0  0  0  0  0  0  0  0  0
  -11.0066    0.0656   -1.4826 C   0  0  0  0  0  0  0  0  0  0  0  0
  -13.2684   -0.2079   -0.6397 C   0  0  0  0  0  0  0  0  0  0  0  0
  -12.4039    2.4597    5.7491 C   0  0  0  0  0  0  0  0  0  0  0  0
  -11.4137    1.1865   -2.4540 C   0  0  0  0  0  0  0  0  0  0  0  0
  -13.8358    0.9164   -1.5229 C   0  0  0  0  0  0  0  0  0  0  0  0
  -11.7975    2.5209    7.0978 N   0  0  0  0  0  0  0  0  0  0  0  0
  -12.7550    1.7606   -2.1211 N   0  0  0  0  0  0  0  0  0  0  0  0
  -13.0851    3.0394   -2.6071 C   0  0  0  0  0  0  0  0  0  0  0  0
  -13.9314    3.1857   -3.6660 N   0  0  0  0  0  0  0  0  0  0  0  0
  -12.4639    4.1511   -2.1193 N   0  0  0  0  0  0  0  0  0  0  0  0
  -10.1005    2.4657    2.1320 C   0  0  0  0  0  0  0  0  0  0  0  0
  -10.3699    1.4043    1.2253 C   0  0  0  0  0  0  0  0  0  0  0  0
   -9.3845    0.4046    0.9943 C   0  0  0  0  0  0  0  0  0  0  0  0
   -8.1349    0.4682    1.6689 C   0  0  0  0  0  0  0  0  0  0  0  0
   -7.8684    1.5300    2.5727 C   0  0  0  0  0  0  0  0  0  0  0  0
   -8.8515    2.5277    2.8048 C   0  0  0  0  0  0  0  0  0  0  0  0
  2  4  1  0  0  0  0
  3  5  1  0  0  0  0
  4  7  1  0  0  0  0
  6  1  1  0  0  0  0
  7 10  1  0  0  0  0
  8  6  1  0  0  0  0
  8 11  1  0  0  0  0
  9  6  1  0  0  0  0
 10 13  1  0  0  0  0
 11 14  1  0  0  0  0
 12  9  1  0  0  0  0
 14 12  1  0  0  0  0
 14 15  1  0  0  0  0
 15 16  1  0  0  0  0
 15 17  1  0  0  0  0
 18  2  1  0  0  0  0
 18 23  2  0  0  0  0
 19  1  1  0  0  0  0
 19 18  1  0  0  0  0
 20 19  2  0  0  0  0
 21  3  1  0  0  0  0
 21 20  1  0  0  0  0
 22 21  2  0  0  0  0
 22 23  1  0  0  0  0
M  END
>  <CHROM.1>
74.93348305,-177.15943374,-73.97670996,-178.70602470,-59.39493095,103.70026666
165.10517959,-25.44391254,81.60047823,-172.68358370,69.66578554,-11.02321814
1.66571593,0.86848891,1.98755093,0.47663879,-1.78669848

>  <Name>
1uui_lig

>  <RI>
0

>  <Rbt.Current_Directory>
/home/itssahil/PROJECTS/Mol_Feturizer/New_Systems/rnas/1uui

>  <Rbt.Executable>
rbdock ($Id: //depot/dev/client3/rdock/2013.1/src/exe/rbdock.cxx#4 $)

>  <Rbt.Library>
libRbt.so (2013.1, Build901 2013/11/27)

>  <Rbt.Parameter_File>
/export/apps/rDock/src/rDock_2013.1_src/data/scripts/dock_solv.prm

>  <Rbt.Receptor>
prm/pocket_docking_4.prm

>  <SCORE>
-16.2853

>  <SCORE.INTER>
-10.697

>  <SCORE.INTER.CONST>
1

>  <SCORE.INTER.POLAR>
-1.70631

>  <SCORE.INTER.ROT>
10

>  <SCORE.INTER.SOLV>
3.06065

>  <SCORE.INTER.VDW>
-12.7305

>  <SCORE.INTER.norm>
-0.465086

>  <SCORE.INTRA>
-5.58837

>  <SCORE.INTRA.DIHEDRAL>
-8.51492

>  <SCORE.INTRA.DIHEDRAL.0>
23.4151

>  <SCORE.INTRA.POLAR>
0

>  <SCORE.INTRA.POLAR.0>
0

>  <SCORE.INTRA.REPUL>
0

>  <SCORE.INTRA.REPUL.0>
0

>  <SCORE.INTRA.SOLV>
-0.091126

>  <SCORE.INTRA.SOLV.lig_0>
-17.3568

>  <SCORE.INTRA.VDW>
-1.28535

>  <SCORE.INTRA.VDW.0>
1.0768

>  <SCORE.INTRA.norm>
-0.242973

>  <SCORE.RESTR>
0

>  <SCORE.RESTR.CAVITY>
0

>  <SCORE.RESTR.norm>
0

>  <SCORE.SYSTEM>
0

>  <SCORE.SYSTEM.CONST>
0

>  <SCORE.SYSTEM.DIHEDRAL>
0

>  <SCORE.SYSTEM.SOLV>
0

>  <SCORE.SYSTEM.norm>
0

>  <SCORE.heavy>
23

>  <SCORE.norm>
-0.708058

>  <RMSD>
6.217

$$$$
1uui_lig
 OpenBabel11021811413D
libRbt.so/2013.1/901 2013/11/27
 23 24  0  0  0  0  0  0  0  0999 V2000
   -5.7840    0.9776    0.6338 C   0  0  0  0  0  0  0  0  0  0  0  0
   -4.5415   -1.6144    0.1991 O   0  0  0  0  0  0  0  0  0  0  0  0
   -7.7380    0.5459   -3.9984 O   0  0  0  0  0  0  0  0  0  0  0  0
   -5.0922   -2.8630    0.6369 C   0  0  0  0  0  0  0  0  0  0  0  0
   -6.9139    1.3040   -4.8874 C   0  0  0  0  0  0  0  0  0  0  0  0
   -6.9207    0.6874    1.5683 N   0  0  0  0  0  0  0  0  0  0  0  0
   -4.2894   -3.3704    1.8357 C   0  0  0  0  0  0  0  0  0  0  0  0
   -7.1183    1.7983    2.5387 C   0  0  0  0  0  0  0  0  0  0  0  0
   -6.6897   -0.5815    2.3078 C   0  0  0  0  0  0  0  0  0  0  0  0
   -2.8427   -3.6505    1.4165 C   0  0  0  0  0  0  0  0  0  0  0  0
   -5.8754    2.0231    3.4165 C   0  0  0  0  0  0  0  0  0  0  0  0
   -5.3965   -0.5264    3.1389 C   0  0  0  0  0  0  0  0  0  0  0  0
   -2.1349   -2.3692    1.1983 N   0  0  0  0  0  0  0  0  0  0  0  0
   -4.9168    0.8764    3.3394 N   0  0  0  0  0  0  0  0  0  0  0  0
   -3.5759    1.0874    3.7106 C   0  0  0  0  0  0  0  0  0  0  0  0
   -3.2017    1.0529    5.0213 N   0  0  0  0  0  0  0  0  0  0  0  0
   -2.6481    1.4630    2.7845 N   0  0  0  0  0  0  0  0  0  0  0  0
   -5.3408   -1.0686   -0.8541 C   0  0  0  0  0  0  0  0  0  0  0  0
   -5.9691    0.1958   -0.6874 C   0  0  0  0  0  0  0  0  0  0  0  0
   -6.7668    0.7325   -1.7359 C   0  0  0  0  0  0  0  0  0  0  0  0
   -6.9341    0.0056   -2.9459 C   0  0  0  0  0  0  0  0  0  0  0  0
   -6.3043   -1.2561   -3.1099 C   0  0  0  0  0  0  0  0  0  0  0  0
   -5.5089   -1.7933   -2.0637 C   0  0  0  0  0  0  0  0  0  0  0  0
  2  4  1  0  0  0  0
  3  5  1  0  0  0  0
  4  7  1  0  0  0  0
  6  1  1  0  0  0  0
  7 10  1  0  0  0  0
  8  6  1  0  0  0  0
  8 11  1  0  0  0  0
  9  6  1  0  0  0  0
 10 13  1  0  0  0  0
 11 14  1  0  0  0  0
 12  9  1  0  0  0  0
 14 12  1  0  0  0  0
 14 15  1  0  0  0  0
 15 16  1  0  0  0  0
 15 17  1  0  0  0  0
 18  2  1  0  0  0  0
 18 23  2  0  0  0  0
 19  1  1  0  0  0  0
 19 18  1  0  0  0  0
 20 19  2  0  0  0  0
 21  3  1  0  0  0  0
 21 20  1  0  0  0  0
 22 21  2  0  0  0  0
 22 23  1  0  0  0  0
M  END
>  <CHROM.1>
-175.44615168,-63.31275436,-155.12833566,72.53873008,71.19221853,82.30584705
90.32326297,-53.56258105,119.27476130,-94.58186855,91.65939421,-5.26857261
-0.26793409,0.64195208,2.25114130,0.90063953,-2.15528058

>  <Name>
1uui_lig

>  <RI>
0

>  <Rbt.Current_Directory>
/home/itssahil/PROJECTS/Mol_Feturizer/New_Systems/rnas/1uui

>  <Rbt.Executable>
rbdock ($Id: //depot/dev/client3/rdock/2013.1/src/exe/rbdock.cxx#4 $)

>  <Rbt.Library>
libRbt.so (2013.1, Build901 2013/11/27)

>  <Rbt.Parameter_File>
/export/apps/rDock/src/rDock_2013.1_src/data/scripts/dock_solv.prm

>  <Rbt.Receptor>
prm/pocket_docking_7.prm

>  <SCORE>
-28.9629

>  <SCORE.INTER>
-19.2647

>  <SCORE.INTER.CONST>
1

>  <SCORE.INTER.POLAR>
-2.18319

>  <SCORE.INTER.ROT>
10

>  <SCORE.INTER.SOLV>
6.64759

>  <SCORE.INTER.VDW>
-18.0484

>  <SCORE.INTER.norm>
-0.837598

>  <SCORE.INTRA>
-9.69819

>  <SCORE.INTRA.DIHEDRAL>
-8.29036

>  <SCORE.INTRA.DIHEDRAL.0>
23.4151

>  <SCORE.INTRA.POLAR>
-0.706414

>  <SCORE.INTRA.POLAR.0>
0

>  <SCORE.INTRA.REPUL>
0

>  <SCORE.INTRA.REPUL.0>
0

>  <SCORE.INTRA.SOLV>
0.957412

>  <SCORE.INTRA.SOLV.lig_0>
-17.3568

>  <SCORE.INTRA.VDW>
-3.62991

>  <SCORE.INTRA.VDW.0>
1.0768

>  <SCORE.INTRA.norm>
-0.421661

>  <SCORE.RESTR>
0

>  <SCORE.RESTR.CAVITY>
0

>  <SCORE.RESTR.norm>
0

>  <SCORE.SYSTEM>
0

>  <SCORE.SYSTEM.CONST>
0

>  <SCORE.SYSTEM.DIHEDRAL>
0

>  <SCORE.SYSTEM.SOLV>
0

>  <SCORE.SYSTEM.norm>
0

>  <SCORE.heavy>
23

>  <SCORE.norm>
-1.25926

>  <RMSD>
6.219

$$$$
1uui_lig
 OpenBabel11021811413D
libRbt.so/2013.1/901 2013/11/27
 23 24  0  0  0  0  0  0  0  0999 V2000
   -5.8778    0.1168    0.2260 C   0  0  0  0  0  0  0  0  0  0  0  0
   -6.2730    0.7742    3.0301 O   0  0  0  0  0  0  0  0  0  0  0  0
  -10.1290    2.6655   -0.7192 O   0  0  0  0  0  0  0  0  0  0  0  0
   -5.2237    1.7391    3.1788 C   0  0  0  0  0  0  0  0  0  0  0  0
  -10.9947    1.5931   -1.0993 C   0  0  0  0  0  0  0  0  0  0  0  0
   -6.3392   -1.0069   -0.6537 N   0  0  0  0  0  0  0  0  0  0  0  0
   -4.0100    1.0630    3.8183 C   0  0  0  0  0  0  0  0  0  0  0  0
   -7.2731   -1.9110    0.0711 C   0  0  0  0  0  0  0  0  0  0  0  0
   -5.1837   -1.7922   -1.1623 C   0  0  0  0  0  0  0  0  0  0  0  0
   -2.9159    2.1003    4.0909 C   0  0  0  0  0  0  0  0  0  0  0  0
   -6.6098   -2.5589    1.2983 C   0  0  0  0  0  0  0  0  0  0  0  0
   -4.3602   -2.3986   -0.0133 C   0  0  0  0  0  0  0  0  0  0  0  0
   -1.6804    1.4120    4.5269 N   0  0  0  0  0  0  0  0  0  0  0  0
   -5.1204   -2.4145    1.2752 N   0  0  0  0  0  0  0  0  0  0  0  0
   -4.4072   -2.5491    2.4809 C   0  0  0  0  0  0  0  0  0  0  0  0
   -3.5644   -3.6025    2.6785 N   0  0  0  0  0  0  0  0  0  0  0  0
   -4.6433   -1.7069    3.5271 N   0  0  0  0  0  0  0  0  0  0  0  0
   -7.2412    1.2444    2.0880 C   0  0  0  0  0  0  0  0  0  0  0  0
   -7.0900    0.9485    0.7057 C   0  0  0  0  0  0  0  0  0  0  0  0
   -8.0531    1.4221   -0.2281 C   0  0  0  0  0  0  0  0  0  0  0  0
   -9.1626    2.1886    0.2213 C   0  0  0  0  0  0  0  0  0  0  0  0
   -9.3115    2.4813    1.6024 C   0  0  0  0  0  0  0  0  0  0  0  0
   -8.3504    2.0101    2.5351 C   0  0  0  0  0  0  0  0  0  0  0  0
  2  4  1  0  0  0  0
  3  5  1  0  0  0  0
  4  7  1  0  0  0  0
  6  1  1  0  0  0  0
  7 10  1  0  0  0  0
  8  6  1  0  0  0  0
  8 11  1  0  0  0  0
  9  6  1  0  0  0  0
 10 13  1  0  0  0  0
 11 14  1  0  0  0  0
 12  9  1  0  0  0  0
 14 12  1  0  0  0  0
 14 15  1  0  0  0  0
 15 16  1  0  0  0  0
 15 17  1  0  0  0  0
 18  2  1  0  0  0  0
 18 23  2  0  0  0  0
 19  1  1  0  0  0  0
 19 18  1  0  0  0  0
 20 19  2  0  0  0  0
 21  3  1  0  0  0  0
 21 20  1  0  0  0  0
 22 21  2  0  0  0  0
 22 23  1  0  0  0  0
M  END
>  <CHROM.1>
-162.30564605,-175.45733444,-59.75101033,-171.96275246,-39.40729459,112.81949202
177.12688873,-168.80549900,89.42494605,129.89378148,77.08487289,-6.17518522
0.04345463,1.49409023,3.06060432,-0.60802411,0.54803926

>  <Name>
1uui_lig

>  <RI>
0

>  <Rbt.Current_Directory>
/home/itssahil/PROJECTS/Mol_Feturizer/New_Systems/rnas/1uui

>  <Rbt.Executable>
rbdock ($Id: //depot/dev/client3/rdock/2013.1/src/exe/rbdock.cxx#4 $)

>  <Rbt.Library>
libRbt.so (2013.1, Build901 2013/11/27)

>  <Rbt.Parameter_File>
/export/apps/rDock/src/rDock_2013.1_src/data/scripts/dock_solv.prm

>  <Rbt.Receptor>
prm/pocket_docking_5.prm

>  <SCORE>
-30.6126

>  <SCORE.INTER>
-20.7573

>  <SCORE.INTER.CONST>
1

>  <SCORE.INTER.POLAR>
-2.5281

>  <SCORE.INTER.ROT>
10

>  <SCORE.INTER.SOLV>
7.7972

>  <SCORE.INTER.VDW>
-18.277

>  <SCORE.INTER.norm>
-0.902493

>  <SCORE.INTRA>
-9.85528

>  <SCORE.INTRA.DIHEDRAL>
-7.01769

>  <SCORE.INTRA.DIHEDRAL.0>
23.4151

>  <SCORE.INTRA.POLAR>
-0.999442

>  <SCORE.INTRA.POLAR.0>
0

>  <SCORE.INTRA.REPUL>
0

>  <SCORE.INTRA.REPUL.0>
0

>  <SCORE.INTRA.SOLV>
1.15271

>  <SCORE.INTRA.SOLV.lig_0>
-17.3568

>  <SCORE.INTRA.VDW>
-3.52469

>  <SCORE.INTRA.VDW.0>
1.0768

>  <SCORE.INTRA.norm>
-0.428491

>  <SCORE.RESTR>
0

>  <SCORE.RESTR.CAVITY>
0

>  <SCORE.RESTR.norm>
0

>  <SCORE.SYSTEM>
0

>  <SCORE.SYSTEM.CONST>
0

>  <SCORE.SYSTEM.DIHEDRAL>
0

>  <SCORE.SYSTEM.SOLV>
0

>  <SCORE.SYSTEM.norm>
0

>  <SCORE.heavy>
23

>  <SCORE.norm>
-1.33098

>  <RMSD>
6.222

$$$$
1uui_lig
 OpenBabel11021811413D
libRbt.so/2013.1/901 2013/11/27
 23 24  0  0  0  0  0  0  0  0999 V2000
   -7.2426    2.2389    0.5614 C   0  0  0  0  0  0  0  0  0  0  0  0
   -8.1263    2.3843   -2.2044 O   0  0  0  0  0  0  0  0  0  0  0  0
   -7.4732    7.2789    0.6452 O   0  0  0  0  0  0  0  0  0  0  0  0
   -7.5195    2.4839   -3.4989 C   0  0  0  0  0  0  0  0  0  0  0  0
   -8.7225    7.9726    0.6902 C   0  0  0  0  0  0  0  0  0  0  0  0
   -7.7937    2.2496    1.9562 N   0  0  0  0  0  0  0  0  0  0  0  0
   -7.3052    1.0773   -4.0599 C   0  0  0  0  0  0  0  0  0  0  0  0
   -6.8806    1.5526    2.9024 C   0  0  0  0  0  0  0  0  0  0  0  0
   -9.1360    1.6120    2.0020 C   0  0  0  0  0  0  0  0  0  0  0  0
   -6.3507    1.1308   -5.2571 C   0  0  0  0  0  0  0  0  0  0  0  0
   -6.6771    0.0760    2.5227 C   0  0  0  0  0  0  0  0  0  0  0  0
   -9.0863    0.1506    1.5243 C   0  0  0  0  0  0  0  0  0  0  0  0
   -5.6380   -0.1606   -5.3787 N   0  0  0  0  0  0  0  0  0  0  0  0
   -7.6934   -0.3954    1.5304 N   0  0  0  0  0  0  0  0  0  0  0  0
   -7.4113   -1.5407    0.7628 C   0  0  0  0  0  0  0  0  0  0  0  0
   -6.9680   -2.6856    1.3558 N   0  0  0  0  0  0  0  0  0  0  0  0
   -7.4454   -1.4912   -0.5995 N   0  0  0  0  0  0  0  0  0  0  0  0
   -7.9580    3.6113   -1.4886 C   0  0  0  0  0  0  0  0  0  0  0  0
   -7.5283    3.5905   -0.1335 C   0  0  0  0  0  0  0  0  0  0  0  0
   -7.3666    4.8131    0.5757 C   0  0  0  0  0  0  0  0  0  0  0  0
   -7.6345    6.0507   -0.0700 C   0  0  0  0  0  0  0  0  0  0  0  0
   -8.0622    6.0683   -1.4235 C   0  0  0  0  0  0  0  0  0  0  0  0
   -8.2249    4.8487   -2.1320 C   0  0  0  0  0  0  0  0  0  0  0  0
  2  4  1  0  0  0  0
  3  5  1  0  0  0  0
  4  7  1  0  0  0  0
  6  1  1  0  0  0  0
  7 10  1  0  0  0  0
  8  6  1  0  0  0  0
  8 11  1  0  0  0  0
  9  6  1  0  0  0  0
 10 13  1  0  0  0  0
 11 14  1  0  0  0  0
 12  9  1  0  0  0  0
 14 12  1  0  0  0  0
 14 15  1  0  0  0  0
 15 16  1  0  0  0  0
 15 17  1  0  0  0  0
 18  2  1  0  0  0  0
 18 23  2  0  0  0  0
 19  1  1  0  0  0  0
 19 18  1  0  0  0  0
 20 19  2  0  0  0  0
 21  3  1  0  0  0  0
 21 20  1  0  0  0  0
 22 21  2  0  0  0  0
 22 23  1  0  0  0  0
M  END
>  <CHROM.1>
161.90369203,-165.62556955,-141.38413544,152.52906879,-63.57680410,49.30160249
0.33686830,22.78402064,-133.74921907,-137.87207013,-119.81699740,-7.55338590
2.21550015,-0.42737445,0.89321029,-1.38797033,2.48417564

>  <Name>
1uui_lig

>  <RI>
0

>  <Rbt.Current_Directory>
/home/itssahil/PROJECTS/Mol_Feturizer/New_Systems/rnas/1uui

>  <Rbt.Executable>
rbdock ($Id: //depot/dev/client3/rdock/2013.1/src/exe/rbdock.cxx#4 $)

>  <Rbt.Library>
libRbt.so (2013.1, Build901 2013/11/27)

>  <Rbt.Parameter_File>
/export/apps/rDock/src/rDock_2013.1_src/data/scripts/dock_solv.prm

>  <Rbt.Receptor>
prm/pocket_docking_7.prm

>  <SCORE>
-31.9412

>  <SCORE.INTER>
-28.7122

>  <SCORE.INTER.CONST>
1

>  <SCORE.INTER.POLAR>
-5.02957

>  <SCORE.INTER.ROT>
10

>  <SCORE.INTER.SOLV>
6.56012

>  <SCORE.INTER.VDW>
-14.8296

>  <SCORE.INTER.norm>
-1.24836

>  <SCORE.INTRA>
-3.22893

>  <SCORE.INTRA.DIHEDRAL>
-5.8272

>  <SCORE.INTRA.DIHEDRAL.0>
23.4151

>  <SCORE.INTRA.POLAR>
0

>  <SCORE.INTRA.POLAR.0>
0

>  <SCORE.INTRA.REPUL>
0

>  <SCORE.INTRA.REPUL.0>
0

>  <SCORE.INTRA.SOLV>
0.044874

>  <SCORE.INTRA.SOLV.lig_0>
-17.3568

>  <SCORE.INTRA.VDW>
-0.337766

>  <SCORE.INTRA.VDW.0>
1.0768

>  <SCORE.INTRA.norm>
-0.140388

>  <SCORE.RESTR>
0

>  <SCORE.RESTR.CAVITY>
0

>  <SCORE.RESTR.norm>
0

>  <SCORE.SYSTEM>
0

>  <SCORE.SYSTEM.CONST>
0

>  <SCORE.SYSTEM.DIHEDRAL>
0

>  <SCORE.SYSTEM.SOLV>
0

>  <SCORE.SYSTEM.norm>
0

>  <SCORE.heavy>
23

>  <SCORE.norm>
-1.38875

>  <RMSD>
6.227

$$$$
1uui_lig
 OpenBabel11021811413D
libRbt.so/2013.1/901 2013/11/27
 23 24  0  0  0  0  0  0  0  0999 V2000
   -8.4023    1.5597   -1.2446 C   0  0  0  0  0  0  0  0  0  0  0  0
   -6.3395    0.9875    0.7223 O   0  0  0  0  0  0  0  0  0  0  0  0
  -11.0761    3.6068    2.5133 O   0  0  0  0  0  0  0  0  0  0  0  0
   -5.9713   -0.0470    1.6433 C   0  0  0  0  0  0  0  0  0  0  0  0
  -12.0403    2.6313    2.9170 C   0  0  0  0  0  0  0  0  0  0  0  0
   -7.9714    2.7562   -2.0398 N   0  0  0  0  0  0  0  0  0  0  0  0
   -7.0346   -1.1459    1.6119 C   0  0  0  0  0  0  0  0  0  0  0  0
   -8.9999    3.8309   -1.9977 C   0  0  0  0  0  0  0  0  0  0  0  0
   -7.7001    2.3847   -3.4536 C   0  0  0  0  0  0  0  0  0  0  0  0
   -6.3762   -2.5044    1.3508 C   0  0  0  0  0  0  0  0  0  0  0  0
  -10.3402    3.3678   -2.5937 C   0  0  0  0  0  0  0  0  0  0  0  0
   -8.9453    1.7891   -4.1326 C   0  0  0  0  0  0  0  0  0  0  0  0
   -5.8338   -2.5339   -0.0259 N   0  0  0  0  0  0  0  0  0  0  0  0
  -10.1996    2.1020   -3.3795 N   0  0  0  0  0  0  0  0  0  0  0  0
  -11.3458    1.3210   -3.6181 C   0  0  0  0  0  0  0  0  0  0  0  0
  -12.0535    1.4571   -4.7755 N   0  0  0  0  0  0  0  0  0  0  0  0
  -11.8505    0.5101   -2.6449 N   0  0  0  0  0  0  0  0  0  0  0  0
   -7.5305    1.6412    1.1701 C   0  0  0  0  0  0  0  0  0  0  0  0
   -8.5668    1.9423    0.2446 C   0  0  0  0  0  0  0  0  0  0  0  0
   -9.7475    2.5965    0.6937 C   0  0  0  0  0  0  0  0  0  0  0  0
   -9.8890    2.9473    2.0639 C   0  0  0  0  0  0  0  0  0  0  0  0
   -8.8530    2.6441    2.9858 C   0  0  0  0  0  0  0  0  0  0  0  0
   -7.6737    1.9922    2.5385 C   0  0  0  0  0  0  0  0  0  0  0  0
  2  4  1  0  0  0  0
  3  5  1  0  0  0  0
  4  7  1  0  0  0  0
  6  1  1  0  0  0  0
  7 10  1  0  0  0  0
  8  6  1  0  0  0  0
  8 11  1  0  0  0  0
  9  6  1  0  0  0  0
 10 13  1  0  0  0  0
 11 14  1  0  0  0  0
 12  9  1  0  0  0  0
 14 12  1  0  0  0  0
 14 15  1  0  0  0  0
 15 16  1  0  0  0  0
 15 17  1  0  0  0  0
 18  2  1  0  0  0  0
 18 23  2  0  0  0  0
 19  1  1  0  0  0  0
 19 18  1  0  0  0  0
 20 19  2  0  0  0  0
 21  3  1  0  0  0  0
 21 20  1  0  0  0  0
 22 21  2  0  0  0  0
 22 23  1  0  0  0  0
M  END
>  <CHROM.1>
66.35924635,126.57577096,-62.50179637,-67.75149859,-158.52807279,95.03738902
30.45467629,146.10183685,-136.19727938,-99.45254652,90.29899131,-8.91239353
1.51009761,-0.46213203,-2.34252952,-0.70441705,1.37928646

>  <Name>
1uui_lig

>  <RI>
0

>  <Rbt.Current_Directory>
/home/itssahil/PROJECTS/Mol_Feturizer/New_Systems/rnas/1uui

>  <Rbt.Executable>
rbdock ($Id: //depot/dev/client3/rdock/2013.1/src/exe/rbdock.cxx#4 $)

>  <Rbt.Library>
libRbt.so (2013.1, Build901 2013/11/27)

>  <Rbt.Parameter_File>
/export/apps/rDock/src/rDock_2013.1_src/data/scripts/dock_solv.prm

>  <Rbt.Receptor>
prm/pocket_docking_4.prm

>  <SCORE>
-18.9701

>  <SCORE.INTER>
-16.0723

>  <SCORE.INTER.CONST>
1

>  <SCORE.INTER.POLAR>
-2.71492

>  <SCORE.INTER.ROT>
10

>  <SCORE.INTER.SOLV>
6.91004

>  <SCORE.INTER.VDW>
-14.2351

>  <SCORE.INTER.norm>
-0.698794

>  <SCORE.INTRA>
-3.07411

>  <SCORE.INTRA.DIHEDRAL>
-5.05955

>  <SCORE.INTRA.DIHEDRAL.0>
23.4151

>  <SCORE.INTRA.POLAR>
0

>  <SCORE.INTRA.POLAR.0>
0

>  <SCORE.INTRA.REPUL>
0

>  <SCORE.INTRA.REPUL.0>
0

>  <SCORE.INTRA.SOLV>
0.326178

>  <SCORE.INTRA.SOLV.lig_0>
-17.3568

>  <SCORE.INTRA.VDW>
-0.707427

>  <SCORE.INTRA.VDW.0>
1.0768

>  <SCORE.INTRA.norm>
-0.133657

>  <SCORE.RESTR>
0.176317

>  <SCORE.RESTR.CAVITY>
0.176317

>  <SCORE.RESTR.norm>
0.00766594

>  <SCORE.SYSTEM>
0

>  <SCORE.SYSTEM.CONST>
0

>  <SCORE.SYSTEM.DIHEDRAL>
0

>  <SCORE.SYSTEM.SOLV>
0

>  <SCORE.SYSTEM.norm>
0

>  <SCORE.heavy>
23

>  <SCORE.norm>
-0.824785

>  <RMSD>
6.248

$$$$
1uui_lig
 OpenBabel11021811413D
libRbt.so/2013.1/901 2013/11/27
 23 24  0  0  0  0  0  0  0  0999 V2000
   -9.7993    0.0891   -0.8380 C   0  0  0  0  0  0  0  0  0  0  0  0
  -10.6353    1.0992   -3.4326 O   0  0  0  0  0  0  0  0  0  0  0  0
  -14.6962   -0.3722    0.2887 O   0  0  0  0  0  0  0  0  0  0  0  0
  -10.1281    2.4031   -3.1219 C   0  0  0  0  0  0  0  0  0  0  0  0
  -15.3384   -1.5690   -0.1578 C   0  0  0  0  0  0  0  0  0  0  0  0
   -9.2794    1.3831   -0.2859 N   0  0  0  0  0  0  0  0  0  0  0  0
  -11.2743    3.4138   -3.1865 C   0  0  0  0  0  0  0  0  0  0  0  0
   -7.8650    1.6117   -0.6883 C   0  0  0  0  0  0  0  0  0  0  0  0
   -9.3832    1.4079    1.1970 C   0  0  0  0  0  0  0  0  0  0  0  0
  -10.7432    4.8257   -2.9191 C   0  0  0  0  0  0  0  0  0  0  0  0
   -6.9324    0.5058   -0.1655 C   0  0  0  0  0  0  0  0  0  0  0  0
   -8.5823    0.2633    1.8409 C   0  0  0  0  0  0  0  0  0  0  0  0
  -11.8251    5.8107   -3.1417 N   0  0  0  0  0  0  0  0  0  0  0  0
   -7.5839   -0.3254    0.8948 N   0  0  0  0  0  0  0  0  0  0  0  0
   -7.0669   -1.6059    1.1659 C   0  0  0  0  0  0  0  0  0  0  0  0
   -6.3401   -1.8395    2.2956 N   0  0  0  0  0  0  0  0  0  0  0  0
   -7.1652   -2.6058    0.2438 N   0  0  0  0  0  0  0  0  0  0  0  0
  -11.6525    0.7330   -2.4959 C   0  0  0  0  0  0  0  0  0  0  0  0
  -11.2921    0.2334   -1.2146 C   0  0  0  0  0  0  0  0  0  0  0  0
  -12.3072   -0.1338   -0.2879 C   0  0  0  0  0  0  0  0  0  0  0  0
  -13.6769   -0.0008   -0.6436 C   0  0  0  0  0  0  0  0  0  0  0  0
  -14.0336    0.4997   -1.9234 C   0  0  0  0  0  0  0  0  0  0  0  0
  -13.0214    0.8654   -2.8494 C   0  0  0  0  0  0  0  0  0  0  0  0
  2  4  1  0  0  0  0
  3  5  1  0  0  0  0
  4  7  1  0  0  0  0
  6  1  1  0  0  0  0
  7 10  1  0  0  0  0
  8  6  1  0  0  0  0
  8 11  1  0  0  0  0
  9  6  1  0  0  0  0
 10 13  1  0  0  0  0
 11 14  1  0  0  0  0
 12  9  1  0  0  0  0
 14 12  1  0  0  0  0
 14 15  1  0  0  0  0
 15 16  1  0  0  0  0
 15 17  1  0  0  0  0
 18  2  1  0  0  0  0
 18 23  2  0  0  0  0
 19  1  1  0  0  0  0
 19 18  1  0  0  0  0
 20 19  2  0  0  0  0
 21  3  1  0  0  0  0
 21 20  1  0  0  0  0
 22 21  2  0  0  0  0
 22 23  1  0  0  0  0
M  END
>  <CHROM.1>
-59.69536278,-177.47820918,-144.52648647,173.32881321,-174.04861533,105.69627257
109.39613081,-11.48032518,-80.33594822,86.16337625,-109.00451099,-10.42345844
0.74651277,-0.83324575,0.67267658,0.18526015,2.54327299

>  <Name>
1uui_lig

>  <RI>
0

>  <Rbt.Current_Directory>
/home/itssahil/PROJECTS/Mol_Feturizer/New_Systems/rnas/1uui

>  <Rbt.Executable>
rbdock ($Id: //depot/dev/client3/rdock/2013.1/src/exe/rbdock.cxx#4 $)

>  <Rbt.Library>
libRbt.so (2013.1, Build901 2013/11/27)

>  <Rbt.Parameter_File>
/export/apps/rDock/src/rDock_2013.1_src/data/scripts/dock_solv.prm

>  <Rbt.Receptor>
prm/pocket_docking_4.prm

>  <SCORE>
-32.3928

>  <SCORE.INTER>
-26.9079

>  <SCORE.INTER.CONST>
1

>  <SCORE.INTER.POLAR>
-4.24349

>  <SCORE.INTER.ROT>
10

>  <SCORE.INTER.SOLV>
7.10086

>  <SCORE.INTER.VDW>
-16.4273

>  <SCORE.INTER.norm>
-1.16991

>  <SCORE.INTRA>
-5.49172

>  <SCORE.INTRA.DIHEDRAL>
-7.60226

>  <SCORE.INTRA.DIHEDRAL.0>
23.4151

>  <SCORE.INTRA.POLAR>
0

>  <SCORE.INTRA.POLAR.0>
0

>  <SCORE.INTRA.REPUL>
0

>  <SCORE.INTRA.REPUL.0>
0

>  <SCORE.INTRA.SOLV>
0.123174

>  <SCORE.INTRA.SOLV.lig_0>
-17.3568

>  <SCORE.INTRA.VDW>
-1.75218

>  <SCORE.INTRA.VDW.0>
1.0768

>  <SCORE.INTRA.norm>
-0.238771

>  <SCORE.RESTR>
0.00680271

>  <SCORE.RESTR.CAVITY>
0.00680271

>  <SCORE.RESTR.norm>
0.00029577

>  <SCORE.SYSTEM>
0

>  <SCORE.SYSTEM.CONST>
0

>  <SCORE.SYSTEM.DIHEDRAL>
0

>  <SCORE.SYSTEM.SOLV>
0

>  <SCORE.SYSTEM.norm>
0

>  <SCORE.heavy>
23

>  <SCORE.norm>
-1.40838

>  <RMSD>
6.252

$$$$
1uui_lig
 OpenBabel11021811413D
libRbt.so/2013.1/901 2013/11/27
 23 24  0  0  0  0  0  0  0  0999 V2000
   -9.5580   -0.0513    0.4670 C   0  0  0  0  0  0  0  0  0  0  0  0
  -11.8974   -0.6005   -1.1691 O   0  0  0  0  0  0  0  0  0  0  0  0
  -12.7346    1.5901    4.0275 O   0  0  0  0  0  0  0  0  0  0  0  0
  -11.4167    0.4124   -2.0618 C   0  0  0  0  0  0  0  0  0  0  0  0
  -12.7826    0.5314    4.9871 C   0  0  0  0  0  0  0  0  0  0  0  0
   -8.9410    1.2018   -0.0794 N   0  0  0  0  0  0  0  0  0  0  0  0
  -12.5742    1.3397   -2.4354 C   0  0  0  0  0  0  0  0  0  0  0  0
   -7.7391    0.8969   -0.9023 C   0  0  0  0  0  0  0  0  0  0  0  0
   -8.5673    2.1322    1.0184 C   0  0  0  0  0  0  0  0  0  0  0  0
  -12.0852    2.4255   -3.3993 C   0  0  0  0  0  0  0  0  0  0  0  0
   -6.6453    0.1909   -0.0831 C   0  0  0  0  0  0  0  0  0  0  0  0
   -7.5580    1.4914    1.9862 C   0  0  0  0  0  0  0  0  0  0  0  0
  -13.2253    3.2797   -3.8005 N   0  0  0  0  0  0  0  0  0  0  0  0
   -6.8910    0.2924    1.3896 N   0  0  0  0  0  0  0  0  0  0  0  0
   -6.2639   -0.6307    2.2470 C   0  0  0  0  0  0  0  0  0  0  0  0
   -6.5341   -1.9639    2.1534 N   0  0  0  0  0  0  0  0  0  0  0  0
   -5.4777   -0.2025    3.2756 N   0  0  0  0  0  0  0  0  0  0  0  0
  -12.1048   -0.0472    0.1336 C   0  0  0  0  0  0  0  0  0  0  0  0
  -10.9913    0.2375    0.9704 C   0  0  0  0  0  0  0  0  0  0  0  0
  -11.2027    0.7834    2.2670 C   0  0  0  0  0  0  0  0  0  0  0  0
  -12.5238    1.0429    2.7228 C   0  0  0  0  0  0  0  0  0  0  0  0
  -13.6336    0.7587    1.8844 C   0  0  0  0  0  0  0  0  0  0  0  0
  -13.4238    0.2128    0.5907 C   0  0  0  0  0  0  0  0  0  0  0  0
  2  4  1  0  0  0  0
  3  5  1  0  0  0  0
  4  7  1  0  0  0  0
  6  1  1  0  0  0  0
  7 10  1  0  0  0  0
  8  6  1  0  0  0  0
  8 11  1  0  0  0  0
  9  6  1  0  0  0  0
 10 13  1  0  0  0  0
 11 14  1  0  0  0  0
 12  9  1  0  0  0  0
 14 12  1  0  0  0  0
 14 15  1  0  0  0  0
 15 16  1  0  0  0  0
 15 17  1  0  0  0  0
 18  2  1  0  0  0  0
 18 23  2  0  0  0  0
 19  1  1  0  0  0  0
 19 18  1  0  0  0  0
 20 19  2  0  0  0  0
 21  3  1  0  0  0  0
 21 20  1  0  0  0  0
 22 21  2  0  0  0  0
 22 23  1  0  0  0  0
M  END
>  <CHROM.1>
-74.73684901,-179.56043558,-164.23152014,177.50471494,174.82621994,-62.49320812
52.65452055,-154.22374623,-75.12578767,97.34455603,-86.11114911,-10.17469393
0.67883372,0.68241257,-0.53291974,0.16483368,-1.38804101

>  <Name>
1uui_lig

>  <RI>
0

>  <Rbt.Current_Directory>
/home/itssahil/PROJECTS/Mol_Feturizer/New_Systems/rnas/1uui

>  <Rbt.Executable>
rbdock ($Id: //depot/dev/client3/rdock/2013.1/src/exe/rbdock.cxx#4 $)

>  <Rbt.Library>
libRbt.so (2013.1, Build901 2013/11/27)

>  <Rbt.Parameter_File>
/export/apps/rDock/src/rDock_2013.1_src/data/scripts/dock_solv.prm

>  <Rbt.Receptor>
prm/pocket_docking_3.prm

>  <SCORE>
-23.8279

>  <SCORE.INTER>
-17.2598

>  <SCORE.INTER.CONST>
1

>  <SCORE.INTER.POLAR>
-2.6199

>  <SCORE.INTER.ROT>
10

>  <SCORE.INTER.SOLV>
6.55755

>  <SCORE.INTER.VDW>
-15.2261

>  <SCORE.INTER.norm>
-0.750428

>  <SCORE.INTRA>
-6.70119

>  <SCORE.INTRA.DIHEDRAL>
-8.20075

>  <SCORE.INTRA.DIHEDRAL.0>
23.4151

>  <SCORE.INTRA.POLAR>
0

>  <SCORE.INTRA.POLAR.0>
0

>  <SCORE.INTRA.REPUL>
0

>  <SCORE.INTRA.REPUL.0>
0

>  <SCORE.INTRA.SOLV>
0.0870752

>  <SCORE.INTRA.SOLV.lig_0>
-17.3568

>  <SCORE.INTRA.VDW>
-2.64436

>  <SCORE.INTRA.VDW.0>
1.0768

>  <SCORE.INTRA.norm>
-0.291356

>  <SCORE.RESTR>
0.133176

>  <SCORE.RESTR.CAVITY>
0.133176

>  <SCORE.RESTR.norm>
0.00579024

>  <SCORE.SYSTEM>
0

>  <SCORE.SYSTEM.CONST>
0

>  <SCORE.SYSTEM.DIHEDRAL>
0

>  <SCORE.SYSTEM.SOLV>
0

>  <SCORE.SYSTEM.norm>
0

>  <SCORE.heavy>
23

>  <SCORE.norm>
-1.03599

>  <RMSD>
6.254

$$$$
1uui_lig
 OpenBabel11021811413D
libRbt.so/2013.1/901 2013/11/27
 23 24  0  0  0  0  0  0  0  0999 V2000
   -9.9022    0.0387    0.7196 C   0  0  0  0  0  0  0  0  0  0  0  0
  -12.3255   -0.5241   -0.7845 O   0  0  0  0  0  0  0  0  0  0  0  0
  -12.8850    1.7015    4.4344 O   0  0  0  0  0  0  0  0  0  0  0  0
  -11.5642    0.3572   -1.6199 C   0  0  0  0  0  0  0  0  0  0  0  0
  -12.7296    0.6685    5.4105 C   0  0  0  0  0  0  0  0  0  0  0  0
   -9.1058    1.3069    0.6373 N   0  0  0  0  0  0  0  0  0  0  0  0
  -12.4159    1.5803   -1.9633 C   0  0  0  0  0  0  0  0  0  0  0  0
   -8.1440    1.2673   -0.4977 C   0  0  0  0  0  0  0  0  0  0  0  0
   -8.3678    1.5539    1.9041 C   0  0  0  0  0  0  0  0  0  0  0  0
  -11.5798    2.5974   -2.7466 C   0  0  0  0  0  0  0  0  0  0  0  0
   -7.1290    0.1208   -0.3516 C   0  0  0  0  0  0  0  0  0  0  0  0
   -7.3966    0.4057    2.2279 C   0  0  0  0  0  0  0  0  0  0  0  0
  -11.2027    2.0220   -4.0570 N   0  0  0  0  0  0  0  0  0  0  0  0
   -7.1190   -0.4494    1.0321 N   0  0  0  0  0  0  0  0  0  0  0  0
   -6.5967   -1.7412    1.2295 C   0  0  0  0  0  0  0  0  0  0  0  0
   -5.6527   -1.9728    2.1856 N   0  0  0  0  0  0  0  0  0  0  0  0
   -6.9216   -2.7601    0.3835 N   0  0  0  0  0  0  0  0  0  0  0  0
  -12.4633    0.0379    0.5236 C   0  0  0  0  0  0  0  0  0  0  0  0
  -11.3068    0.3295    1.2974 C   0  0  0  0  0  0  0  0  0  0  0  0
  -11.4489    0.8842    2.5997 C   0  0  0  0  0  0  0  0  0  0  0  0
  -12.7440    1.1454    3.1241 C   0  0  0  0  0  0  0  0  0  0  0  0
  -13.8968    0.8544    2.3485 C   0  0  0  0  0  0  0  0  0  0  0  0
  -13.7562    0.2998    1.0491 C   0  0  0  0  0  0  0  0  0  0  0  0
  2  4  1  0  0  0  0
  3  5  1  0  0  0  0
  4  7  1  0  0  0  0
  6  1  1  0  0  0  0
  7 10  1  0  0  0  0
  8  6  1  0  0  0  0
  8 11  1  0  0  0  0
  9  6  1  0  0  0  0
 10 13  1  0  0  0  0
 11 14  1  0  0  0  0
 12  9  1  0  0  0  0
 14 12  1  0  0  0  0
 14 15  1  0  0  0  0
 15 16  1  0  0  0  0
 15 17  1  0  0  0  0
 18  2  1  0  0  0  0
 18 23  2  0  0  0  0
 19  1  1  0  0  0  0
 19 18  1  0  0  0  0
 20 19  2  0  0  0  0
 21  3  1  0  0  0  0
 21 20  1  0  0  0  0
 22 21  2  0  0  0  0
 22 23  1  0  0  0  0
M  END
>  <CHROM.1>
-71.99459625,174.74307895,-149.27718158,65.45247641,-45.19504390,128.75088119
-76.49417163,-1.40375929,-59.55207194,119.77622908,-79.65688499,-10.23165380
0.41006112,0.78556200,-0.02696748,0.32617832,-1.42053452

>  <Name>
1uui_lig

>  <RI>
0

>  <Rbt.Current_Directory>
/home/itssahil/PROJECTS/Mol_Feturizer/New_Systems/rnas/1uui

>  <Rbt.Executable>
rbdock ($Id: //depot/dev/client3/rdock/2013.1/src/exe/rbdock.cxx#4 $)

>  <Rbt.Library>
libRbt.so (2013.1, Build901 2013/11/27)

>  <Rbt.Parameter_File>
/export/apps/rDock/src/rDock_2013.1_src/data/scripts/dock_solv.prm

>  <Rbt.Receptor>
prm/pocket_docking_4.prm

>  <SCORE>
-26.32

>  <SCORE.INTER>
-22.1549

>  <SCORE.INTER.CONST>
1

>  <SCORE.INTER.POLAR>
-3.37074

>  <SCORE.INTER.ROT>
10

>  <SCORE.INTER.SOLV>
6.82027

>  <SCORE.INTER.VDW>
-16.0742

>  <SCORE.INTER.norm>
-0.963257

>  <SCORE.INTRA>
-4.16512

>  <SCORE.INTRA.DIHEDRAL>
-7.77143

>  <SCORE.INTRA.DIHEDRAL.0>
23.4151

>  <SCORE.INTRA.POLAR>
0

>  <SCORE.INTRA.POLAR.0>
0

>  <SCORE.INTRA.REPUL>
0

>  <SCORE.INTRA.REPUL.0>
0

>  <SCORE.INTRA.SOLV>
0.142565

>  <SCORE.INTRA.SOLV.lig_0>
-17.3568

>  <SCORE.INTRA.VDW>
-0.350684

>  <SCORE.INTRA.VDW.0>
1.0768

>  <SCORE.INTRA.norm>
-0.181092

>  <SCORE.RESTR>
0

>  <SCORE.RESTR.CAVITY>
0

>  <SCORE.RESTR.norm>
0

>  <SCORE.SYSTEM>
0

>  <SCORE.SYSTEM.CONST>
0

>  <SCORE.SYSTEM.DIHEDRAL>
0

>  <SCORE.SYSTEM.SOLV>
0

>  <SCORE.SYSTEM.norm>
0

>  <SCORE.heavy>
23

>  <SCORE.norm>
-1.14435

>  <RMSD>
6.254

$$$$
1uui_lig
 OpenBabel11021811413D
libRbt.so/2013.1/901 2013/11/27
 23 24  0  0  0  0  0  0  0  0999 V2000
   -7.6409    0.4548   -0.7299 C   0  0  0  0  0  0  0  0  0  0  0  0
   -7.7393    2.6946   -2.5806 O   0  0  0  0  0  0  0  0  0  0  0  0
  -12.5637   -0.1910   -1.6305 O   0  0  0  0  0  0  0  0  0  0  0  0
   -7.5920    2.9482   -3.9834 C   0  0  0  0  0  0  0  0  0  0  0  0
  -13.3967    0.5492   -0.7348 C   0  0  0  0  0  0  0  0  0  0  0  0
   -7.5809    1.0682    0.6374 N   0  0  0  0  0  0  0  0  0  0  0  0
   -6.3696    2.1897   -4.5028 C   0  0  0  0  0  0  0  0  0  0  0  0
   -6.1761    1.3444    1.0435 C   0  0  0  0  0  0  0  0  0  0  0  0
   -8.2236    0.1839    1.6450 C   0  0  0  0  0  0  0  0  0  0  0  0
   -6.5429    0.6872   -4.2584 C   0  0  0  0  0  0  0  0  0  0  0  0
   -5.3312    0.0604    1.1016 C   0  0  0  0  0  0  0  0  0  0  0  0
   -7.5372   -1.1910    1.7131 C   0  0  0  0  0  0  0  0  0  0  0  0
   -6.3972   -0.0414   -5.5384 N   0  0  0  0  0  0  0  0  0  0  0  0
   -6.1791   -1.1727    1.0858 N   0  0  0  0  0  0  0  0  0  0  0  0
   -5.5935   -2.3935    0.7020 C   0  0  0  0  0  0  0  0  0  0  0  0
   -5.2439   -3.3230    1.6361 N   0  0  0  0  0  0  0  0  0  0  0  0
   -5.2399   -2.6184   -0.5957 N   0  0  0  0  0  0  0  0  0  0  0  0
   -8.9494    1.9715   -2.3377 C   0  0  0  0  0  0  0  0  0  0  0  0
   -8.9503    0.8681   -1.4411 C   0  0  0  0  0  0  0  0  0  0  0  0
  -10.1552    0.1492   -1.2062 C   0  0  0  0  0  0  0  0  0  0  0  0
  -11.3535    0.5342   -1.8666 C   0  0  0  0  0  0  0  0  0  0  0  0
  -11.3497    1.6372   -2.7602 C   0  0  0  0  0  0  0  0  0  0  0  0
  -10.1476    2.3548   -2.9964 C   0  0  0  0  0  0  0  0  0  0  0  0
  2  4  1  0  0  0  0
  3  5  1  0  0  0  0
  4  7  1  0  0  0  0
  6  1  1  0  0  0  0
  7 10  1  0  0  0  0
  8  6  1  0  0  0  0
  8 11  1  0  0  0  0
  9  6  1  0  0  0  0
 10 13  1  0  0  0  0
 11 14  1  0  0  0  0
 12  9  1  0  0  0  0
 14 12  1  0  0  0  0
 14 15  1  0  0  0  0
 15 16  1  0  0  0  0
 15 17  1  0  0  0  0
 18  2  1  0  0  0  0
 18 23  2  0  0  0  0
 19  1  1  0  0  0  0
 19 18  1  0  0  0  0
 20 19  2  0  0  0  0
 21  3  1  0  0  0  0
 21 20  1  0  0  0  0
 22 21  2  0  0  0  0
 22 23  1  0  0  0  0
M  END
>  <CHROM.1>
-114.70425186,59.33550521,-149.05358852,124.55085429,176.17676721,102.48632301
130.13209691,43.30330117,135.80575143,96.09737419,102.28044055,-8.04106570
0.33343452,-1.20940923,0.81685819,-0.18730754,2.06467498

>  <Name>
1uui_lig

>  <RI>
0

>  <Rbt.Current_Directory>
/home/itssahil/PROJECTS/Mol_Feturizer/New_Systems/rnas/1uui

>  <Rbt.Executable>
rbdock ($Id: //depot/dev/client3/rdock/2013.1/src/exe/rbdock.cxx#4 $)

>  <Rbt.Library>
libRbt.so (2013.1, Build901 2013/11/27)

>  <Rbt.Parameter_File>
/export/apps/rDock/src/rDock_2013.1_src/data/scripts/dock_solv.prm

>  <Rbt.Receptor>
prm/pocket_docking_7.prm

>  <SCORE>
-28.0221

>  <SCORE.INTER>
-27.0356

>  <SCORE.INTER.CONST>
1

>  <SCORE.INTER.POLAR>
-3.98459

>  <SCORE.INTER.ROT>
10

>  <SCORE.INTER.SOLV>
6.50631

>  <SCORE.INTER.VDW>
-17.1772

>  <SCORE.INTER.norm>
-1.17546

>  <SCORE.INTRA>
-0.98649

>  <SCORE.INTRA.DIHEDRAL>
2.20821

>  <SCORE.INTRA.DIHEDRAL.0>
23.4151

>  <SCORE.INTRA.POLAR>
0

>  <SCORE.INTRA.POLAR.0>
0

>  <SCORE.INTRA.REPUL>
0

>  <SCORE.INTRA.REPUL.0>
0

>  <SCORE.INTRA.SOLV>
0.0824119

>  <SCORE.INTRA.SOLV.lig_0>
-17.3568

>  <SCORE.INTRA.VDW>
-2.1318

>  <SCORE.INTRA.VDW.0>
1.0768

>  <SCORE.INTRA.norm>
-0.0428909

>  <SCORE.RESTR>
0

>  <SCORE.RESTR.CAVITY>
0

>  <SCORE.RESTR.norm>
0

>  <SCORE.SYSTEM>
0

>  <SCORE.SYSTEM.CONST>
0

>  <SCORE.SYSTEM.DIHEDRAL>
0

>  <SCORE.SYSTEM.SOLV>
0

>  <SCORE.SYSTEM.norm>
0

>  <SCORE.heavy>
23

>  <SCORE.norm>
-1.21835

>  <RMSD>
6.260

$$$$
1uui_lig
 OpenBabel11021811413D
libRbt.so/2013.1/901 2013/11/27
 23 24  0  0  0  0  0  0  0  0999 V2000
   -7.9683    0.4288    0.5390 C   0  0  0  0  0  0  0  0  0  0  0  0
   -9.2006    0.7798   -2.0705 O   0  0  0  0  0  0  0  0  0  0  0  0
  -12.6255   -0.1648    2.3883 O   0  0  0  0  0  0  0  0  0  0  0  0
   -9.3493    2.1291   -2.5301 C   0  0  0  0  0  0  0  0  0  0  0  0
  -13.3459   -1.3827    2.1842 C   0  0  0  0  0  0  0  0  0  0  0  0
   -7.5448    1.8296    0.8675 N   0  0  0  0  0  0  0  0  0  0  0  0
   -8.1458    2.4965   -3.3995 C   0  0  0  0  0  0  0  0  0  0  0  0
   -6.2032    2.1347    0.3003 C   0  0  0  0  0  0  0  0  0  0  0  0
   -7.5224    2.0466    2.3382 C   0  0  0  0  0  0  0  0  0  0  0  0
   -7.9792    1.4697   -4.5242 C   0  0  0  0  0  0  0  0  0  0  0  0
   -5.1156    1.2044    0.8636 C   0  0  0  0  0  0  0  0  0  0  0  0
   -6.5504    1.0821    3.0391 C   0  0  0  0  0  0  0  0  0  0  0  0
   -7.5147    2.1531   -5.7521 N   0  0  0  0  0  0  0  0  0  0  0  0
   -5.5799    0.4675    2.0806 N   0  0  0  0  0  0  0  0  0  0  0  0
   -4.9067   -0.7089    2.4592 C   0  0  0  0  0  0  0  0  0  0  0  0
   -3.6462   -0.6552    2.9761 N   0  0  0  0  0  0  0  0  0  0  0  0
   -5.4435   -1.9341    2.1940 N   0  0  0  0  0  0  0  0  0  0  0  0
  -10.0581    0.5465   -0.9497 C   0  0  0  0  0  0  0  0  0  0  0  0
   -9.5013    0.3682    0.3462 C   0  0  0  0  0  0  0  0  0  0  0  0
  -10.3579    0.1319    1.4572 C   0  0  0  0  0  0  0  0  0  0  0  0
  -11.7658    0.0747    1.2704 C   0  0  0  0  0  0  0  0  0  0  0  0
  -12.3188    0.2545   -0.0247 C   0  0  0  0  0  0  0  0  0  0  0  0
  -11.4649    0.4892   -1.1344 C   0  0  0  0  0  0  0  0  0  0  0  0
  2  4  1  0  0  0  0
  3  5  1  0  0  0  0
  4  7  1  0  0  0  0
  6  1  1  0  0  0  0
  7 10  1  0  0  0  0
  8  6  1  0  0  0  0
  8 11  1  0  0  0  0
  9  6  1  0  0  0  0
 10 13  1  0  0  0  0
 11 14  1  0  0  0  0
 12  9  1  0  0  0  0
 14 12  1  0  0  0  0
 14 15  1  0  0  0  0
 15 16  1  0  0  0  0
 15 17  1  0  0  0  0
 18  2  1  0  0  0  0
 18 23  2  0  0  0  0
 19  1  1  0  0  0  0
 19 18  1  0  0  0  0
 20 19  2  0  0  0  0
 21  3  1  0  0  0  0
 21 20  1  0  0  0  0
 22 21  2  0  0  0  0
 22 23  1  0  0  0  0
M  END
>  <CHROM.1>
161.98371766,54.27441368,-146.48373336,143.85796704,-173.54093110,71.06162954
116.96168499,-86.63318649,-110.11164860,91.55956294,-118.16217014,-8.37179316
0.66009718,0.18585463,0.63268511,0.09292779,1.90296992

>  <Name>
1uui_lig

>  <RI>
0

>  <Rbt.Current_Directory>
/home/itssahil/PROJECTS/Mol_Feturizer/New_Systems/rnas/1uui

>  <Rbt.Executable>
rbdock ($Id: //depot/dev/client3/rdock/2013.1/src/exe/rbdock.cxx#4 $)

>  <Rbt.Library>
libRbt.so (2013.1, Build901 2013/11/27)

>  <Rbt.Parameter_File>
/export/apps/rDock/src/rDock_2013.1_src/data/scripts/dock_solv.prm

>  <Rbt.Receptor>
prm/pocket_docking_6.prm

>  <SCORE>
-28.7146

>  <SCORE.INTER>
-24.3674

>  <SCORE.INTER.CONST>
1

>  <SCORE.INTER.POLAR>
-3.80752

>  <SCORE.INTER.ROT>
10

>  <SCORE.INTER.SOLV>
5.44411

>  <SCORE.INTER.VDW>
-15.6346

>  <SCORE.INTER.norm>
-1.05945

>  <SCORE.INTRA>
-4.34719

>  <SCORE.INTRA.DIHEDRAL>
-3.66365

>  <SCORE.INTRA.DIHEDRAL.0>
23.4151

>  <SCORE.INTRA.POLAR>
0

>  <SCORE.INTRA.POLAR.0>
0

>  <SCORE.INTRA.REPUL>
0

>  <SCORE.INTRA.REPUL.0>
0

>  <SCORE.INTRA.SOLV>
0.0979756

>  <SCORE.INTRA.SOLV.lig_0>
-17.3568

>  <SCORE.INTRA.VDW>
-2.56435

>  <SCORE.INTRA.VDW.0>
1.0768

>  <SCORE.INTRA.norm>
-0.189008

>  <SCORE.RESTR>
0

>  <SCORE.RESTR.CAVITY>
0

>  <SCORE.RESTR.norm>
0

>  <SCORE.SYSTEM>
0

>  <SCORE.SYSTEM.CONST>
0

>  <SCORE.SYSTEM.DIHEDRAL>
0

>  <SCORE.SYSTEM.SOLV>
0

>  <SCORE.SYSTEM.norm>
0

>  <SCORE.heavy>
23

>  <SCORE.norm>
-1.24846

>  <RMSD>
6.272

$$$$
1uui_lig
 OpenBabel11021811413D
libRbt.so/2013.1/901 2013/11/27
 23 24  0  0  0  0  0  0  0  0999 V2000
  -12.4635    1.5536   -0.8615 C   0  0  0  0  0  0  0  0  0  0  0  0
  -12.5233   -0.4679    1.2269 O   0  0  0  0  0  0  0  0  0  0  0  0
   -7.5789    2.1905    0.2324 O   0  0  0  0  0  0  0  0  0  0  0  0
  -13.1185    0.0304    2.4317 C   0  0  0  0  0  0  0  0  0  0  0  0
   -7.2546    3.0307    1.3428 C   0  0  0  0  0  0  0  0  0  0  0  0
  -12.5179    0.7128   -2.1024 N   0  0  0  0  0  0  0  0  0  0  0  0
  -12.6108   -0.7920    3.6171 C   0  0  0  0  0  0  0  0  0  0  0  0
  -11.6706    1.2887   -3.1818 C   0  0  0  0  0  0  0  0  0  0  0  0
  -13.9158    0.5750   -2.5897 C   0  0  0  0  0  0  0  0  0  0  0  0
  -12.7676    0.0075    4.9145 C   0  0  0  0  0  0  0  0  0  0  0  0
  -12.1342    2.6983   -3.5866 C   0  0  0  0  0  0  0  0  0  0  0  0
  -14.5398    1.9424   -2.9171 C   0  0  0  0  0  0  0  0  0  0  0  0
  -12.5350   -0.8822    6.0741 N   0  0  0  0  0  0  0  0  0  0  0  0
  -13.5036    3.0107   -3.0700 N   0  0  0  0  0  0  0  0  0  0  0  0
  -13.8988    4.3574   -2.9670 C   0  0  0  0  0  0  0  0  0  0  0  0
  -13.0753    5.3596   -3.3870 N   0  0  0  0  0  0  0  0  0  0  0  0
  -15.0523    4.6971   -2.3240 N   0  0  0  0  0  0  0  0  0  0  0  0
  -11.2848    0.2031    0.9782 C   0  0  0  0  0  0  0  0  0  0  0  0
  -11.2065    1.1987   -0.0337 C   0  0  0  0  0  0  0  0  0  0  0  0
   -9.9715    1.8602   -0.2805 C   0  0  0  0  0  0  0  0  0  0  0  0
   -8.8203    1.5256    0.4832 C   0  0  0  0  0  0  0  0  0  0  0  0
   -8.9020    0.5319    1.4938 C   0  0  0  0  0  0  0  0  0  0  0  0
  -10.1337   -0.1297    1.7402 C   0  0  0  0  0  0  0  0  0  0  0  0
  2  4  1  0  0  0  0
  3  5  1  0  0  0  0
  4  7  1  0  0  0  0
  6  1  1  0  0  0  0
  7 10  1  0  0  0  0
  8  6  1  0  0  0  0
  8 11  1  0  0  0  0
  9  6  1  0  0  0  0
 10 13  1  0  0  0  0
 11 14  1  0  0  0  0
 12  9  1  0  0  0  0
 14 12  1  0  0  0  0
 14 15  1  0  0  0  0
 15 16  1  0  0  0  0
 15 17  1  0  0  0  0
 18  2  1  0  0  0  0
 18 23  2  0  0  0  0
 19  1  1  0  0  0  0
 19 18  1  0  0  0  0
 20 19  2  0  0  0  0
 21  3  1  0  0  0  0
 21 20  1  0  0  0  0
 22 21  2  0  0  0  0
 22 23  1  0  0  0  0
M  END
>  <CHROM.1>
-89.20067423,158.11361832,-82.75597076,168.66351537,171.12023108,2.99723102
-126.99310147,-110.95791684,-104.69793852,-91.64831258,111.24072142,-11.84255127
1.52193586,-0.09647560,1.86820684,-0.13755155,-1.05386812

>  <Name>
1uui_lig

>  <RI>
0

>  <Rbt.Current_Directory>
/home/itssahil/PROJECTS/Mol_Feturizer/New_Systems/rnas/1uui

>  <Rbt.Executable>
rbdock ($Id: //depot/dev/client3/rdock/2013.1/src/exe/rbdock.cxx#4 $)

>  <Rbt.Library>
libRbt.so (2013.1, Build901 2013/11/27)

>  <Rbt.Parameter_File>
/export/apps/rDock/src/rDock_2013.1_src/data/scripts/dock_solv.prm

>  <Rbt.Receptor>
prm/pocket_docking_4.prm

>  <SCORE>
-16.4958

>  <SCORE.INTER>
-12.893

>  <SCORE.INTER.CONST>
1

>  <SCORE.INTER.POLAR>
-1.81626

>  <SCORE.INTER.ROT>
10

>  <SCORE.INTER.SOLV>
5.86687

>  <SCORE.INTER.VDW>
-14.7634

>  <SCORE.INTER.norm>
-0.560563

>  <SCORE.INTRA>
-3.60797

>  <SCORE.INTRA.DIHEDRAL>
-3.51751

>  <SCORE.INTRA.DIHEDRAL.0>
23.4151

>  <SCORE.INTRA.POLAR>
0

>  <SCORE.INTRA.POLAR.0>
0

>  <SCORE.INTRA.REPUL>
0

>  <SCORE.INTRA.REPUL.0>
0

>  <SCORE.INTRA.SOLV>
0.0121662

>  <SCORE.INTRA.SOLV.lig_0>
-17.3568

>  <SCORE.INTRA.VDW>
-1.8553

>  <SCORE.INTRA.VDW.0>
1.0768

>  <SCORE.INTRA.norm>
-0.156868

>  <SCORE.RESTR>
0.00513176

>  <SCORE.RESTR.CAVITY>
0.00513176

>  <SCORE.RESTR.norm>
0.00022312

>  <SCORE.SYSTEM>
0

>  <SCORE.SYSTEM.CONST>
0

>  <SCORE.SYSTEM.DIHEDRAL>
0

>  <SCORE.SYSTEM.SOLV>
0

>  <SCORE.SYSTEM.norm>
0

>  <SCORE.heavy>
23

>  <SCORE.norm>
-0.717209

>  <RMSD>
6.286

$$$$
1uui_lig
 OpenBabel11021811413D
libRbt.so/2013.1/901 2013/11/27
 23 24  0  0  0  0  0  0  0  0999 V2000
   -9.5659    0.4845   -0.8168 C   0  0  0  0  0  0  0  0  0  0  0  0
  -10.4192    1.3218   -3.4668 O   0  0  0  0  0  0  0  0  0  0  0  0
  -14.3612   -0.8275    0.0467 O   0  0  0  0  0  0  0  0  0  0  0  0
  -10.0390    2.6360   -3.0399 C   0  0  0  0  0  0  0  0  0  0  0  0
  -14.9117    0.2204    0.8485 C   0  0  0  0  0  0  0  0  0  0  0  0
   -9.4878    1.2683    0.4595 N   0  0  0  0  0  0  0  0  0  0  0  0
  -11.2494    3.5651   -3.1442 C   0  0  0  0  0  0  0  0  0  0  0  0
   -8.2148    2.0345    0.5450 C   0  0  0  0  0  0  0  0  0  0  0  0
   -9.6080    0.3733    1.6406 C   0  0  0  0  0  0  0  0  0  0  0  0
  -10.8191    5.0151   -2.9005 C   0  0  0  0  0  0  0  0  0  0  0  0
   -6.9850    1.1109    0.5216 C   0  0  0  0  0  0  0  0  0  0  0  0
   -8.4920   -0.6849    1.6664 C   0  0  0  0  0  0  0  0  0  0  0  0
  -11.9424    5.9240   -3.2207 N   0  0  0  0  0  0  0  0  0  0  0  0
   -7.3497   -0.3187    0.7723 N   0  0  0  0  0  0  0  0  0  0  0  0
   -6.4563   -1.3277    0.3668 C   0  0  0  0  0  0  0  0  0  0  0  0
   -6.9191   -2.5217   -0.1012 N   0  0  0  0  0  0  0  0  0  0  0  0
   -5.1135   -1.1864    0.5581 N   0  0  0  0  0  0  0  0  0  0  0  0
  -11.4072    0.7858   -2.5822 C   0  0  0  0  0  0  0  0  0  0  0  0
  -11.0373    0.3622   -1.2764 C   0  0  0  0  0  0  0  0  0  0  0  0
  -12.0226   -0.1744   -0.4017 C   0  0  0  0  0  0  0  0  0  0  0  0
  -13.3722   -0.2860   -0.8335 C   0  0  0  0  0  0  0  0  0  0  0  0
  -13.7387    0.1390   -2.1375 C   0  0  0  0  0  0  0  0  0  0  0  0
  -12.7560    0.6736   -3.0117 C   0  0  0  0  0  0  0  0  0  0  0  0
  2  4  1  0  0  0  0
  3  5  1  0  0  0  0
  4  7  1  0  0  0  0
  6  1  1  0  0  0  0
  7 10  1  0  0  0  0
  8  6  1  0  0  0  0
  8 11  1  0  0  0  0
  9  6  1  0  0  0  0
 10 13  1  0  0  0  0
 11 14  1  0  0  0  0
 12  9  1  0  0  0  0
 14 12  1  0  0  0  0
 14 15  1  0  0  0  0
 15 16  1  0  0  0  0
 15 17  1  0  0  0  0
 18  2  1  0  0  0  0
 18 23  2  0  0  0  0
 19  1  1  0  0  0  0
 19 18  1  0  0  0  0
 20 19  2  0  0  0  0
 21  3  1  0  0  0  0
 21 20  1  0  0  0  0
 22 21  2  0  0  0  0
 22 23  1  0  0  0  0
M  END
>  <CHROM.1>
-64.02833453,-171.36614227,-148.60712446,170.76334175,63.08956252,-144.80743141
-135.86788480,43.06884092,-72.79225412,125.10465665,87.96524927,-10.23343157
0.83902698,-0.84050758,-0.63028123,-0.11619553,-0.59283424

>  <Name>
1uui_lig

>  <RI>
0

>  <Rbt.Current_Directory>
/home/itssahil/PROJECTS/Mol_Feturizer/New_Systems/rnas/1uui

>  <Rbt.Executable>
rbdock ($Id: //depot/dev/client3/rdock/2013.1/src/exe/rbdock.cxx#4 $)

>  <Rbt.Library>
libRbt.so (2013.1, Build901 2013/11/27)

>  <Rbt.Parameter_File>
/export/apps/rDock/src/rDock_2013.1_src/data/scripts/dock_solv.prm

>  <Rbt.Receptor>
prm/pocket_docking_4.prm

>  <SCORE>
-23.7496

>  <SCORE.INTER>
-18.2084

>  <SCORE.INTER.CONST>
1

>  <SCORE.INTER.POLAR>
-3.26554

>  <SCORE.INTER.ROT>
10

>  <SCORE.INTER.SOLV>
5.34909

>  <SCORE.INTER.VDW>
-13.3035

>  <SCORE.INTER.norm>
-0.791668

>  <SCORE.INTRA>
-5.54122

>  <SCORE.INTRA.DIHEDRAL>
-7.29758

>  <SCORE.INTRA.DIHEDRAL.0>
23.4151

>  <SCORE.INTRA.POLAR>
0

>  <SCORE.INTRA.POLAR.0>
0

>  <SCORE.INTRA.REPUL>
0

>  <SCORE.INTRA.REPUL.0>
0

>  <SCORE.INTRA.SOLV>
-0.0569213

>  <SCORE.INTRA.SOLV.lig_0>
-17.3568

>  <SCORE.INTRA.VDW>
-1.86397

>  <SCORE.INTRA.VDW.0>
1.0768

>  <SCORE.INTRA.norm>
-0.240923

>  <SCORE.RESTR>
0

>  <SCORE.RESTR.CAVITY>
0

>  <SCORE.RESTR.norm>
0

>  <SCORE.SYSTEM>
0

>  <SCORE.SYSTEM.CONST>
0

>  <SCORE.SYSTEM.DIHEDRAL>
0

>  <SCORE.SYSTEM.SOLV>
0

>  <SCORE.SYSTEM.norm>
0

>  <SCORE.heavy>
23

>  <SCORE.norm>
-1.03259

>  <RMSD>
6.293

$$$$
1uui_lig
 OpenBabel11021811413D
libRbt.so/2013.1/901 2013/11/27
 23 24  0  0  0  0  0  0  0  0999 V2000
  -11.1838    1.5504   -0.4106 C   0  0  0  0  0  0  0  0  0  0  0  0
  -10.5344    1.0372    2.3762 O   0  0  0  0  0  0  0  0  0  0  0  0
   -7.3869   -1.5479   -1.6130 O   0  0  0  0  0  0  0  0  0  0  0  0
  -11.7795    0.3464    2.5388 C   0  0  0  0  0  0  0  0  0  0  0  0
   -6.0473   -1.0509   -1.5630 C   0  0  0  0  0  0  0  0  0  0  0  0
  -10.7634    2.9829   -0.2671 N   0  0  0  0  0  0  0  0  0  0  0  0
  -12.5945    1.0361    3.6339 C   0  0  0  0  0  0  0  0  0  0  0  0
  -11.9080    3.8430    0.1391 C   0  0  0  0  0  0  0  0  0  0  0  0
  -10.1836    3.4961   -1.5363 C   0  0  0  0  0  0  0  0  0  0  0  0
  -13.5088    0.0195    4.3250 C   0  0  0  0  0  0  0  0  0  0  0  0
  -13.0413    3.8207   -0.9007 C   0  0  0  0  0  0  0  0  0  0  0  0
  -11.1919    3.4130   -2.6950 C   0  0  0  0  0  0  0  0  0  0  0  0
  -12.6993   -0.8585    5.1993 N   0  0  0  0  0  0  0  0  0  0  0  0
  -12.5958    3.2421   -2.2069 N   0  0  0  0  0  0  0  0  0  0  0  0
  -13.5681    2.7522   -3.0986 C   0  0  0  0  0  0  0  0  0  0  0  0
  -13.8409    1.4182   -3.1684 N   0  0  0  0  0  0  0  0  0  0  0  0
  -14.1615    3.5803   -4.0050 N   0  0  0  0  0  0  0  0  0  0  0  0
   -9.7436    0.3927    1.3735 C   0  0  0  0  0  0  0  0  0  0  0  0
  -10.0239    0.6125   -0.0028 C   0  0  0  0  0  0  0  0  0  0  0  0
   -9.2376   -0.0342   -0.9964 C   0  0  0  0  0  0  0  0  0  0  0  0
   -8.1753   -0.8970   -0.6126 C   0  0  0  0  0  0  0  0  0  0  0  0
   -7.8970   -1.1135    0.7626 C   0  0  0  0  0  0  0  0  0  0  0  0
   -8.6818   -0.4695    1.7551 C   0  0  0  0  0  0  0  0  0  0  0  0
  2  4  1  0  0  0  0
  3  5  1  0  0  0  0
  4  7  1  0  0  0  0
  6  1  1  0  0  0  0
  7 10  1  0  0  0  0
  8  6  1  0  0  0  0
  8 11  1  0  0  0  0
  9  6  1  0  0  0  0
 10 13  1  0  0  0  0
 11 14  1  0  0  0  0
 12  9  1  0  0  0  0
 14 12  1  0  0  0  0
 14 15  1  0  0  0  0
 15 16  1  0  0  0  0
 15 17  1  0  0  0  0
 18  2  1  0  0  0  0
 18 23  2  0  0  0  0
 19  1  1  0  0  0  0
 19 18  1  0  0  0  0
 20 19  2  0  0  0  0
 21  3  1  0  0  0  0
 21 20  1  0  0  0  0
 22 21  2  0  0  0  0
 22 23  1  0  0  0  0
M  END
>  <CHROM.1>
178.87562287,-151.13706863,-146.62090303,73.60050058,-165.69290265,-98.93769348
21.94760657,-28.60496361,78.78646028,77.87803930,113.98484918,-10.95809105
1.20655805,-0.03661206,-2.11322225,-0.51298038,1.95481932

>  <Name>
1uui_lig

>  <RI>
0

>  <Rbt.Current_Directory>
/home/itssahil/PROJECTS/Mol_Feturizer/New_Systems/rnas/1uui

>  <Rbt.Executable>
rbdock ($Id: //depot/dev/client3/rdock/2013.1/src/exe/rbdock.cxx#4 $)

>  <Rbt.Library>
libRbt.so (2013.1, Build901 2013/11/27)

>  <Rbt.Parameter_File>
/export/apps/rDock/src/rDock_2013.1_src/data/scripts/dock_solv.prm

>  <Rbt.Receptor>
prm/pocket_docking_4.prm

>  <SCORE>
-21.1667

>  <SCORE.INTER>
-15.8345

>  <SCORE.INTER.CONST>
1

>  <SCORE.INTER.POLAR>
-2.48637

>  <SCORE.INTER.ROT>
10

>  <SCORE.INTER.SOLV>
6.572

>  <SCORE.INTER.VDW>
-14.7258

>  <SCORE.INTER.norm>
-0.688458

>  <SCORE.INTRA>
-5.3322

>  <SCORE.INTRA.DIHEDRAL>
-4.7956

>  <SCORE.INTRA.DIHEDRAL.0>
23.4151

>  <SCORE.INTRA.POLAR>
0

>  <SCORE.INTRA.POLAR.0>
0

>  <SCORE.INTRA.REPUL>
0

>  <SCORE.INTRA.REPUL.0>
0

>  <SCORE.INTRA.SOLV>
0.242621

>  <SCORE.INTRA.SOLV.lig_0>
-17.3568

>  <SCORE.INTRA.VDW>
-3.05571

>  <SCORE.INTRA.VDW.0>
1.0768

>  <SCORE.INTRA.norm>
-0.231835

>  <SCORE.RESTR>
0

>  <SCORE.RESTR.CAVITY>
0

>  <SCORE.RESTR.norm>
0

>  <SCORE.SYSTEM>
0

>  <SCORE.SYSTEM.CONST>
0

>  <SCORE.SYSTEM.DIHEDRAL>
0

>  <SCORE.SYSTEM.SOLV>
0

>  <SCORE.SYSTEM.norm>
0

>  <SCORE.heavy>
23

>  <SCORE.norm>
-0.920293

>  <RMSD>
6.295

$$$$
1uui_lig
 OpenBabel11021811413D
libRbt.so/2013.1/901 2013/11/27
 23 24  0  0  0  0  0  0  0  0999 V2000
  -10.7829    0.8448    1.6013 C   0  0  0  0  0  0  0  0  0  0  0  0
  -11.2795    1.9709    4.2351 O   0  0  0  0  0  0  0  0  0  0  0  0
  -14.5074   -2.4209    2.5629 O   0  0  0  0  0  0  0  0  0  0  0  0
  -12.0571    2.8698    5.0359 C   0  0  0  0  0  0  0  0  0  0  0  0
  -15.6683   -1.9278    1.8897 C   0  0  0  0  0  0  0  0  0  0  0  0
  -11.0809    0.4800    0.1774 N   0  0  0  0  0  0  0  0  0  0  0  0
  -11.1867    4.0612    5.4383 C   0  0  0  0  0  0  0  0  0  0  0  0
   -9.9884    0.9202   -0.7323 C   0  0  0  0  0  0  0  0  0  0  0  0
  -12.3672    1.0791   -0.2665 C   0  0  0  0  0  0  0  0  0  0  0  0
  -11.8399    4.8187    6.5987 C   0  0  0  0  0  0  0  0  0  0  0  0
   -9.7945    2.4458   -0.7019 C   0  0  0  0  0  0  0  0  0  0  0  0
  -12.3424    2.6139   -0.1668 C   0  0  0  0  0  0  0  0  0  0  0  0
  -11.8097    3.9780    7.8165 N   0  0  0  0  0  0  0  0  0  0  0  0
  -10.9489    3.1474   -0.0579 N   0  0  0  0  0  0  0  0  0  0  0  0
  -10.7592    4.4506    0.4383 C   0  0  0  0  0  0  0  0  0  0  0  0
  -10.6846    5.5155   -0.4099 N   0  0  0  0  0  0  0  0  0  0  0  0
  -10.5117    4.6620    1.7625 N   0  0  0  0  0  0  0  0  0  0  0  0
  -12.0856    0.8664    3.8149 C   0  0  0  0  0  0  0  0  0  0  0  0
  -11.8801    0.2829    2.5349 C   0  0  0  0  0  0  0  0  0  0  0  0
  -12.6873   -0.8125    2.1195 C   0  0  0  0  0  0  0  0  0  0  0  0
  -13.6956   -1.3207    2.9829 C   0  0  0  0  0  0  0  0  0  0  0  0
  -13.8975   -0.7366    4.2610 C   0  0  0  0  0  0  0  0  0  0  0  0
  -13.0933    0.3573    4.6761 C   0  0  0  0  0  0  0  0  0  0  0  0
  2  4  1  0  0  0  0
  3  5  1  0  0  0  0
  4  7  1  0  0  0  0
  6  1  1  0  0  0  0
  7 10  1  0  0  0  0
  8  6  1  0  0  0  0
  8 11  1  0  0  0  0
  9  6  1  0  0  0  0
 10 13  1  0  0  0  0
 11 14  1  0  0  0  0
 12  9  1  0  0  0  0
 14 12  1  0  0  0  0
 14 15  1  0  0  0  0
 15 16  1  0  0  0  0
 15 17  1  0  0  0  0
 18  2  1  0  0  0  0
 18 23  2  0  0  0  0
 19  1  1  0  0  0  0
 19 18  1  0  0  0  0
 20 19  2  0  0  0  0
 21  3  1  0  0  0  0
 21 20  1  0  0  0  0
 22 21  2  0  0  0  0
 22 23  1  0  0  0  0
M  END
>  <CHROM.1>
-178.35129383,-163.81834302,-175.74210161,68.23893471,-56.92426277,75.37667494
13.51752490,-175.88864515,145.14312074,-157.90972124,-89.99924088,-11.93685025
1.72460442,2.43484154,0.14010608,-1.04506413,-1.97929125

>  <Name>
1uui_lig

>  <RI>
0

>  <Rbt.Current_Directory>
/home/itssahil/PROJECTS/Mol_Feturizer/New_Systems/rnas/1uui

>  <Rbt.Executable>
rbdock ($Id: //depot/dev/client3/rdock/2013.1/src/exe/rbdock.cxx#4 $)

>  <Rbt.Library>
libRbt.so (2013.1, Build901 2013/11/27)

>  <Rbt.Parameter_File>
/export/apps/rDock/src/rDock_2013.1_src/data/scripts/dock_solv.prm

>  <Rbt.Receptor>
prm/pocket_docking_4.prm

>  <SCORE>
-14.2953

>  <SCORE.INTER>
-8.35947

>  <SCORE.INTER.CONST>
1

>  <SCORE.INTER.POLAR>
-1.8546

>  <SCORE.INTER.ROT>
10

>  <SCORE.INTER.SOLV>
3.26628

>  <SCORE.INTER.VDW>
-10.7464

>  <SCORE.INTER.norm>
-0.363455

>  <SCORE.INTRA>
-6.01524

>  <SCORE.INTRA.DIHEDRAL>
-11.3932

>  <SCORE.INTRA.DIHEDRAL.0>
23.4151

>  <SCORE.INTRA.POLAR>
0

>  <SCORE.INTRA.POLAR.0>
0

>  <SCORE.INTRA.REPUL>
0

>  <SCORE.INTRA.REPUL.0>
0

>  <SCORE.INTRA.SOLV>
0.492836

>  <SCORE.INTRA.SOLV.lig_0>
-17.3568

>  <SCORE.INTRA.VDW>
-0.565061

>  <SCORE.INTRA.VDW.0>
1.0768

>  <SCORE.INTRA.norm>
-0.261532

>  <SCORE.RESTR>
0.0794191

>  <SCORE.RESTR.CAVITY>
0.0794191

>  <SCORE.RESTR.norm>
0.00345301

>  <SCORE.SYSTEM>
0

>  <SCORE.SYSTEM.CONST>
0

>  <SCORE.SYSTEM.DIHEDRAL>
0

>  <SCORE.SYSTEM.SOLV>
0

>  <SCORE.SYSTEM.norm>
0

>  <SCORE.heavy>
23

>  <SCORE.norm>
-0.621534

>  <RMSD>
6.298

$$$$
1uui_lig
 OpenBabel11021811413D
libRbt.so/2013.1/901 2013/11/27
 23 24  0  0  0  0  0  0  0  0999 V2000
   -8.3918    0.9224    0.8997 C   0  0  0  0  0  0  0  0  0  0  0  0
  -10.3259    0.9347   -1.2707 O   0  0  0  0  0  0  0  0  0  0  0  0
  -12.3133    1.0952    4.0705 O   0  0  0  0  0  0  0  0  0  0  0  0
  -10.4192    2.2324   -1.8717 C   0  0  0  0  0  0  0  0  0  0  0  0
  -12.8750   -0.1759    4.4065 C   0  0  0  0  0  0  0  0  0  0  0  0
   -8.0744   -0.1739   -0.0734 N   0  0  0  0  0  0  0  0  0  0  0  0
  -10.2737    2.0927   -3.3878 C   0  0  0  0  0  0  0  0  0  0  0  0
   -8.1559   -1.5110    0.5748 C   0  0  0  0  0  0  0  0  0  0  0  0
   -6.7205    0.0114   -0.6592 C   0  0  0  0  0  0  0  0  0  0  0  0
  -11.5625    1.5209   -3.9870 C   0  0  0  0  0  0  0  0  0  0  0  0
   -7.1544   -1.6502    1.7339 C   0  0  0  0  0  0  0  0  0  0  0  0
   -5.6288    0.0125    0.4245 C   0  0  0  0  0  0  0  0  0  0  0  0
  -12.6647    2.4918   -3.8058 N   0  0  0  0  0  0  0  0  0  0  0  0
   -6.1150   -0.5737    1.7122 N   0  0  0  0  0  0  0  0  0  0  0  0
   -5.4081   -0.2897    2.8955 C   0  0  0  0  0  0  0  0  0  0  0  0
   -4.9617   -1.2962    3.6996 N   0  0  0  0  0  0  0  0  0  0  0  0
   -5.2709    0.9946    3.3331 N   0  0  0  0  0  0  0  0  0  0  0  0
  -10.8221    0.9788    0.0702 C   0  0  0  0  0  0  0  0  0  0  0  0
   -9.9144    0.9739    1.1645 C   0  0  0  0  0  0  0  0  0  0  0  0
  -10.4127    1.0133    2.4964 C   0  0  0  0  0  0  0  0  0  0  0  0
  -11.8140    1.0575    2.7306 C   0  0  0  0  0  0  0  0  0  0  0  0
  -12.7177    1.0636    1.6358 C   0  0  0  0  0  0  0  0  0  0  0  0
  -12.2216    1.0231    0.3061 C   0  0  0  0  0  0  0  0  0  0  0  0
  2  4  1  0  0  0  0
  3  5  1  0  0  0  0
  4  7  1  0  0  0  0
  6  1  1  0  0  0  0
  7 10  1  0  0  0  0
  8  6  1  0  0  0  0
  8 11  1  0  0  0  0
  9  6  1  0  0  0  0
 10 13  1  0  0  0  0
 11 14  1  0  0  0  0
 12  9  1  0  0  0  0
 14 12  1  0  0  0  0
 14 15  1  0  0  0  0
 15 16  1  0  0  0  0
 15 17  1  0  0  0  0
 18  2  1  0  0  0  0
 18 23  2  0  0  0  0
 19  1  1  0  0  0  0
 19 18  1  0  0  0  0
 20 19  2  0  0  0  0
 21  3  1  0  0  0  0
 21 20  1  0  0  0  0
 22 21  2  0  0  0  0
 22 23  1  0  0  0  0
M  END
>  <CHROM.1>
-163.89588899,74.93010784,-75.22467580,65.58495602,56.84469673,42.12117236
144.64579403,135.09972364,-103.95248170,-49.18156231,-106.48425131,-9.28882333
0.55732304,0.72876361,-0.64647342,0.22030494,-1.37354758

>  <Name>
1uui_lig

>  <RI>
0

>  <Rbt.Current_Directory>
/home/itssahil/PROJECTS/Mol_Feturizer/New_Systems/rnas/1uui

>  <Rbt.Executable>
rbdock ($Id: //depot/dev/client3/rdock/2013.1/src/exe/rbdock.cxx#4 $)

>  <Rbt.Library>
libRbt.so (2013.1, Build901 2013/11/27)

>  <Rbt.Parameter_File>
/export/apps/rDock/src/rDock_2013.1_src/data/scripts/dock_solv.prm

>  <Rbt.Receptor>
prm/pocket_docking_3.prm

>  <SCORE>
-30.0528

>  <SCORE.INTER>
-21.1883

>  <SCORE.INTER.CONST>
1

>  <SCORE.INTER.POLAR>
-2.99904

>  <SCORE.INTER.ROT>
10

>  <SCORE.INTER.SOLV>
7.96735

>  <SCORE.INTER.VDW>
-17.0512

>  <SCORE.INTER.norm>
-0.92123

>  <SCORE.INTRA>
-8.8645

>  <SCORE.INTRA.DIHEDRAL>
-7.46308

>  <SCORE.INTRA.DIHEDRAL.0>
23.4151

>  <SCORE.INTRA.POLAR>
-0.7178

>  <SCORE.INTRA.POLAR.0>
0

>  <SCORE.INTRA.REPUL>
0

>  <SCORE.INTRA.REPUL.0>
0

>  <SCORE.INTRA.SOLV>
0.525811

>  <SCORE.INTRA.SOLV.lig_0>
-17.3568

>  <SCORE.INTRA.VDW>
-2.95534

>  <SCORE.INTRA.VDW.0>
1.0768

>  <SCORE.INTRA.norm>
-0.385413

>  <SCORE.RESTR>
0

>  <SCORE.RESTR.CAVITY>
0

>  <SCORE.RESTR.norm>
0

>  <SCORE.SYSTEM>
0

>  <SCORE.SYSTEM.CONST>
0

>  <SCORE.SYSTEM.DIHEDRAL>
0

>  <SCORE.SYSTEM.SOLV>
0

>  <SCORE.SYSTEM.norm>
0

>  <SCORE.heavy>
23

>  <SCORE.norm>
-1.30664

>  <RMSD>
6.321

$$$$
1uui_lig
 OpenBabel11021811413D
libRbt.so/2013.1/901 2013/11/27
 23 24  0  0  0  0  0  0  0  0999 V2000
   -8.5052    0.2750    0.9033 C   0  0  0  0  0  0  0  0  0  0  0  0
   -9.8947    0.2137   -1.6495 O   0  0  0  0  0  0  0  0  0  0  0  0
  -13.0456    0.5037    3.0931 O   0  0  0  0  0  0  0  0  0  0  0  0
   -9.6111    1.5315   -2.1362 C   0  0  0  0  0  0  0  0  0  0  0  0
  -12.9700   -0.7419    3.7907 C   0  0  0  0  0  0  0  0  0  0  0  0
   -7.9599   -0.7013   -0.0962 N   0  0  0  0  0  0  0  0  0  0  0  0
  -10.8830    2.1242   -2.7446 C   0  0  0  0  0  0  0  0  0  0  0  0
   -7.7070   -2.0282    0.5284 C   0  0  0  0  0  0  0  0  0  0  0  0
   -6.7026   -0.1920   -0.7047 C   0  0  0  0  0  0  0  0  0  0  0  0
  -11.0955    1.5697   -4.1569 C   0  0  0  0  0  0  0  0  0  0  0  0
   -6.6743   -1.9414    1.6650 C   0  0  0  0  0  0  0  0  0  0  0  0
   -5.6172    0.0534    0.3574 C   0  0  0  0  0  0  0  0  0  0  0  0
  -12.3779    2.0733   -4.6974 N   0  0  0  0  0  0  0  0  0  0  0  0
   -5.9204   -0.6488    1.6432 N   0  0  0  0  0  0  0  0  0  0  0  0
   -5.2735   -0.2212    2.8176 C   0  0  0  0  0  0  0  0  0  0  0  0
   -5.8439    0.7175    3.6253 N   0  0  0  0  0  0  0  0  0  0  0  0
   -4.0057   -0.6341    3.1037 N   0  0  0  0  0  0  0  0  0  0  0  0
  -10.6831    0.2903   -0.4584 C   0  0  0  0  0  0  0  0  0  0  0  0
  -10.0482    0.3220    0.8133 C   0  0  0  0  0  0  0  0  0  0  0  0
  -10.8366    0.3937    1.9953 C   0  0  0  0  0  0  0  0  0  0  0  0
  -12.2544    0.4335    1.9034 C   0  0  0  0  0  0  0  0  0  0  0  0
  -12.8854    0.4030    0.6321 C   0  0  0  0  0  0  0  0  0  0  0  0
  -12.0997    0.3303   -0.5482 C   0  0  0  0  0  0  0  0  0  0  0  0
  2  4  1  0  0  0  0
  3  5  1  0  0  0  0
  4  7  1  0  0  0  0
  6  1  1  0  0  0  0
  7 10  1  0  0  0  0
  8  6  1  0  0  0  0
  8 11  1  0  0  0  0
  9  6  1  0  0  0  0
 10 13  1  0  0  0  0
 11 14  1  0  0  0  0
 12  9  1  0  0  0  0
 14 12  1  0  0  0  0
 14 15  1  0  0  0  0
 15 16  1  0  0  0  0
 15 17  1  0  0  0  0
 18  2  1  0  0  0  0
 18 23  2  0  0  0  0
 19  1  1  0  0  0  0
 19 18  1  0  0  0  0
 20 19  2  0  0  0  0
 21  3  1  0  0  0  0
 21 20  1  0  0  0  0
 22 21  2  0  0  0  0
 22 23  1  0  0  0  0
M  END
>  <CHROM.1>
-72.98647603,-79.69327357,-96.32852907,175.94498728,38.66170135,-99.85547728
18.09529132,-129.20327262,-91.66118704,-40.55581718,-70.29909321,-9.22507410
0.19001453,0.40499394,0.59091809,-0.11567442,1.80548803

>  <Name>
1uui_lig

>  <RI>
0

>  <Rbt.Current_Directory>
/home/itssahil/PROJECTS/Mol_Feturizer/New_Systems/rnas/1uui

>  <Rbt.Executable>
rbdock ($Id: //depot/dev/client3/rdock/2013.1/src/exe/rbdock.cxx#4 $)

>  <Rbt.Library>
libRbt.so (2013.1, Build901 2013/11/27)

>  <Rbt.Parameter_File>
/export/apps/rDock/src/rDock_2013.1_src/data/scripts/dock_solv.prm

>  <Rbt.Receptor>
prm/pocket_docking_5.prm

>  <SCORE>
-25.7822

>  <SCORE.INTER>
-18.9994

>  <SCORE.INTER.CONST>
1

>  <SCORE.INTER.POLAR>
-1.93109

>  <SCORE.INTER.ROT>
10

>  <SCORE.INTER.SOLV>
9.33462

>  <SCORE.INTER.VDW>
-19.6075

>  <SCORE.INTER.norm>
-0.826063

>  <SCORE.INTRA>
-6.78279

>  <SCORE.INTRA.DIHEDRAL>
-4.4673

>  <SCORE.INTRA.DIHEDRAL.0>
23.4151

>  <SCORE.INTRA.POLAR>
-0.719411

>  <SCORE.INTRA.POLAR.0>
0

>  <SCORE.INTRA.REPUL>
0

>  <SCORE.INTRA.REPUL.0>
0

>  <SCORE.INTRA.SOLV>
0.303758

>  <SCORE.INTRA.SOLV.lig_0>
-17.3568

>  <SCORE.INTRA.VDW>
-2.25502

>  <SCORE.INTRA.VDW.0>
1.0768

>  <SCORE.INTRA.norm>
-0.294904

>  <SCORE.RESTR>
0

>  <SCORE.RESTR.CAVITY>
0

>  <SCORE.RESTR.norm>
0

>  <SCORE.SYSTEM>
0

>  <SCORE.SYSTEM.CONST>
0

>  <SCORE.SYSTEM.DIHEDRAL>
0

>  <SCORE.SYSTEM.SOLV>
0

>  <SCORE.SYSTEM.norm>
0

>  <SCORE.heavy>
23

>  <SCORE.norm>
-1.12097

>  <RMSD>
6.327

$$$$
1uui_lig
 OpenBabel11021811413D
libRbt.so/2013.1/901 2013/11/27
 23 24  0  0  0  0  0  0  0  0999 V2000
   -7.4063   -0.0555   -0.2674 C   0  0  0  0  0  0  0  0  0  0  0  0
   -8.9481    0.7550   -2.5949 O   0  0  0  0  0  0  0  0  0  0  0  0
  -11.7454   -0.0441    2.3081 O   0  0  0  0  0  0  0  0  0  0  0  0
   -9.1028    2.1099   -3.0357 C   0  0  0  0  0  0  0  0  0  0  0  0
  -12.0132    1.2205    2.9191 C   0  0  0  0  0  0  0  0  0  0  0  0
   -7.0975   -1.5169   -0.4038 N   0  0  0  0  0  0  0  0  0  0  0  0
   -8.2762    3.0268   -2.1328 C   0  0  0  0  0  0  0  0  0  0  0  0
   -7.4302   -2.2573    0.8435 C   0  0  0  0  0  0  0  0  0  0  0  0
   -5.6643   -1.7280   -0.7384 C   0  0  0  0  0  0  0  0  0  0  0  0
   -8.4951    4.4899   -2.5309 C   0  0  0  0  0  0  0  0  0  0  0  0
   -6.6199   -1.7484    2.0478 C   0  0  0  0  0  0  0  0  0  0  0  0
   -4.7378   -1.1478    0.3439 C   0  0  0  0  0  0  0  0  0  0  0  0
   -7.9816    4.7109   -3.9013 N   0  0  0  0  0  0  0  0  0  0  0  0
   -5.4625   -0.8974    1.6286 N   0  0  0  0  0  0  0  0  0  0  0  0
   -4.8928   -0.0171    2.5673 C   0  0  0  0  0  0  0  0  0  0  0  0
   -3.6357   -0.2308    3.0499 N   0  0  0  0  0  0  0  0  0  0  0  0
   -5.6316    0.9897    3.1150 N   0  0  0  0  0  0  0  0  0  0  0  0
   -9.6473    0.5577   -1.3627 C   0  0  0  0  0  0  0  0  0  0  0  0
   -8.9359    0.1604   -0.1977 C   0  0  0  0  0  0  0  0  0  0  0  0
   -9.6362   -0.0391    1.0245 C   0  0  0  0  0  0  0  0  0  0  0  0
  -11.0427    0.1587    1.0789 C   0  0  0  0  0  0  0  0  0  0  0  0
  -11.7500    0.5566   -0.0859 C   0  0  0  0  0  0  0  0  0  0  0  0
  -11.0524    0.7549   -1.3064 C   0  0  0  0  0  0  0  0  0  0  0  0
  2  4  1  0  0  0  0
  3  5  1  0  0  0  0
  4  7  1  0  0  0  0
  6  1  1  0  0  0  0
  7 10  1  0  0  0  0
  8  6  1  0  0  0  0
  8 11  1  0  0  0  0
  9  6  1  0  0  0  0
 10 13  1  0  0  0  0
 11 14  1  0  0  0  0
 12  9  1  0  0  0  0
 14 12  1  0  0  0  0
 14 15  1  0  0  0  0
 15 16  1  0  0  0  0
 15 17  1  0  0  0  0
 18  2  1  0  0  0  0
 18 23  2  0  0  0  0
 19  1  1  0  0  0  0
 19 18  1  0  0  0  0
 20 19  2  0  0  0  0
 21  3  1  0  0  0  0
 21 20  1  0  0  0  0
 22 21  2  0  0  0  0
 22 23  1  0  0  0  0
M  END
>  <CHROM.1>
72.04965596,-176.49095003,-68.96319627,-64.33972845,66.30774989,111.69644369
-91.49117646,-124.64993722,-119.36131961,-99.17288652,101.15890234,-8.08312307
0.46615748,0.10302772,-0.83243750,0.09506332,-0.95140850

>  <Name>
1uui_lig

>  <RI>
0

>  <Rbt.Current_Directory>
/home/itssahil/PROJECTS/Mol_Feturizer/New_Systems/rnas/1uui

>  <Rbt.Executable>
rbdock ($Id: //depot/dev/client3/rdock/2013.1/src/exe/rbdock.cxx#4 $)

>  <Rbt.Library>
libRbt.so (2013.1, Build901 2013/11/27)

>  <Rbt.Parameter_File>
/export/apps/rDock/src/rDock_2013.1_src/data/scripts/dock_solv.prm

>  <Rbt.Receptor>
prm/pocket_docking_5.prm

>  <SCORE>
-26.7623

>  <SCORE.INTER>
-20.0676

>  <SCORE.INTER.CONST>
1

>  <SCORE.INTER.POLAR>
-3.00223

>  <SCORE.INTER.ROT>
10

>  <SCORE.INTER.SOLV>
5.73553

>  <SCORE.INTER.VDW>
-15.5495

>  <SCORE.INTER.norm>
-0.872506

>  <SCORE.INTRA>
-6.69465

>  <SCORE.INTRA.DIHEDRAL>
-9.65917

>  <SCORE.INTRA.DIHEDRAL.0>
23.4151

>  <SCORE.INTRA.POLAR>
0

>  <SCORE.INTRA.POLAR.0>
0

>  <SCORE.INTRA.REPUL>
0

>  <SCORE.INTRA.REPUL.0>
0

>  <SCORE.INTRA.SOLV>
0.104197

>  <SCORE.INTRA.SOLV.lig_0>
-17.3568

>  <SCORE.INTRA.VDW>
-1.91716

>  <SCORE.INTRA.VDW.0>
1.0768

>  <SCORE.INTRA.norm>
-0.291072

>  <SCORE.RESTR>
0

>  <SCORE.RESTR.CAVITY>
0

>  <SCORE.RESTR.norm>
0

>  <SCORE.SYSTEM>
0

>  <SCORE.SYSTEM.CONST>
0

>  <SCORE.SYSTEM.DIHEDRAL>
0

>  <SCORE.SYSTEM.SOLV>
0

>  <SCORE.SYSTEM.norm>
0

>  <SCORE.heavy>
23

>  <SCORE.norm>
-1.16358

>  <RMSD>
6.335

$$$$
1uui_lig
 OpenBabel11021811413D
libRbt.so/2013.1/901 2013/11/27
 23 24  0  0  0  0  0  0  0  0999 V2000
   -8.6156   -0.7760    1.3146 C   0  0  0  0  0  0  0  0  0  0  0  0
  -10.6252    0.8709    2.6186 O   0  0  0  0  0  0  0  0  0  0  0  0
  -10.1562    1.2292   -3.0520 O   0  0  0  0  0  0  0  0  0  0  0  0
  -11.9875    0.6184    2.9851 C   0  0  0  0  0  0  0  0  0  0  0  0
   -9.1584    2.1972   -3.3858 C   0  0  0  0  0  0  0  0  0  0  0  0
   -7.5203    0.0085    1.9738 N   0  0  0  0  0  0  0  0  0  0  0  0
  -12.1579    0.8753    4.4831 C   0  0  0  0  0  0  0  0  0  0  0  0
   -6.9560    1.0289    1.0492 C   0  0  0  0  0  0  0  0  0  0  0  0
   -6.4329   -0.8896    2.4444 C   0  0  0  0  0  0  0  0  0  0  0  0
  -13.5499    0.4240    4.9368 C   0  0  0  0  0  0  0  0  0  0  0  0
   -6.3418    0.3891   -0.2075 C   0  0  0  0  0  0  0  0  0  0  0  0
   -5.8119   -1.6851    1.2835 C   0  0  0  0  0  0  0  0  0  0  0  0
  -13.7502    0.7922    6.3562 N   0  0  0  0  0  0  0  0  0  0  0  0
   -6.1393   -1.0849   -0.0473 N   0  0  0  0  0  0  0  0  0  0  0  0
   -6.0062   -1.8805   -1.2005 C   0  0  0  0  0  0  0  0  0  0  0  0
   -6.8286   -1.6976   -2.2724 N   0  0  0  0  0  0  0  0  0  0  0  0
   -5.1448   -2.9375   -1.2213 N   0  0  0  0  0  0  0  0  0  0  0  0
  -10.5083    0.9563    1.1955 C   0  0  0  0  0  0  0  0  0  0  0  0
   -9.5394    0.1705    0.5135 C   0  0  0  0  0  0  0  0  0  0  0  0
   -9.4238    0.2621   -0.9014 C   0  0  0  0  0  0  0  0  0  0  0  0
  -10.2751    1.1370   -1.6295 C   0  0  0  0  0  0  0  0  0  0  0  0
  -11.2424    1.9194   -0.9458 C   0  0  0  0  0  0  0  0  0  0  0  0
  -11.3580    1.8297    0.4664 C   0  0  0  0  0  0  0  0  0  0  0  0
  2  4  1  0  0  0  0
  3  5  1  0  0  0  0
  4  7  1  0  0  0  0
  6  1  1  0  0  0  0
  7 10  1  0  0  0  0
  8  6  1  0  0  0  0
  8 11  1  0  0  0  0
  9  6  1  0  0  0  0
 10 13  1  0  0  0  0
 11 14  1  0  0  0  0
 12  9  1  0  0  0  0
 14 12  1  0  0  0  0
 14 15  1  0  0  0  0
 15 16  1  0  0  0  0
 15 17  1  0  0  0  0
 18  2  1  0  0  0  0
 18 23  2  0  0  0  0
 19  1  1  0  0  0  0
 19 18  1  0  0  0  0
 20 19  2  0  0  0  0
 21  3  1  0  0  0  0
 21 20  1  0  0  0  0
 22 21  2  0  0  0  0
 22 23  1  0  0  0  0
M  END
>  <CHROM.1>
-166.01245143,-172.03002763,-43.03957376,-174.74495770,67.04341301,-43.70150672
-166.12667363,-75.61455856,-128.07315570,-77.72974142,-86.61286673,-9.10357335
0.14016766,0.76297068,-0.60549369,-0.48010893,1.82379369

>  <Name>
1uui_lig

>  <RI>
0

>  <Rbt.Current_Directory>
/home/itssahil/PROJECTS/Mol_Feturizer/New_Systems/rnas/1uui

>  <Rbt.Executable>
rbdock ($Id: //depot/dev/client3/rdock/2013.1/src/exe/rbdock.cxx#4 $)

>  <Rbt.Library>
libRbt.so (2013.1, Build901 2013/11/27)

>  <Rbt.Parameter_File>
/export/apps/rDock/src/rDock_2013.1_src/data/scripts/dock_solv.prm

>  <Rbt.Receptor>
prm/pocket_docking_5.prm

>  <SCORE>
-25.3148

>  <SCORE.INTER>
-19.7606

>  <SCORE.INTER.CONST>
1

>  <SCORE.INTER.POLAR>
-2.91118

>  <SCORE.INTER.ROT>
10

>  <SCORE.INTER.SOLV>
7.8703

>  <SCORE.INTER.VDW>
-16.3599

>  <SCORE.INTER.norm>
-0.859158

>  <SCORE.INTRA>
-5.55413

>  <SCORE.INTRA.DIHEDRAL>
-9.24555

>  <SCORE.INTRA.DIHEDRAL.0>
23.4151

>  <SCORE.INTRA.POLAR>
0

>  <SCORE.INTRA.POLAR.0>
0

>  <SCORE.INTRA.REPUL>
0

>  <SCORE.INTRA.REPUL.0>
0

>  <SCORE.INTRA.SOLV>
0.530611

>  <SCORE.INTRA.SOLV.lig_0>
-17.3568

>  <SCORE.INTRA.VDW>
-1.19666

>  <SCORE.INTRA.VDW.0>
1.0768

>  <SCORE.INTRA.norm>
-0.241484

>  <SCORE.RESTR>
0

>  <SCORE.RESTR.CAVITY>
0

>  <SCORE.RESTR.norm>
0

>  <SCORE.SYSTEM>
0

>  <SCORE.SYSTEM.CONST>
0

>  <SCORE.SYSTEM.DIHEDRAL>
0

>  <SCORE.SYSTEM.SOLV>
0

>  <SCORE.SYSTEM.norm>
0

>  <SCORE.heavy>
23

>  <SCORE.norm>
-1.10064

>  <RMSD>
6.341

$$$$
1uui_lig
 OpenBabel11021811413D
libRbt.so/2013.1/901 2013/11/27
 23 24  0  0  0  0  0  0  0  0999 V2000
   -8.8848    0.8942    1.6226 C   0  0  0  0  0  0  0  0  0  0  0  0
  -10.3813    1.9827   -0.6194 O   0  0  0  0  0  0  0  0  0  0  0  0
  -13.2378    0.8108    4.1734 O   0  0  0  0  0  0  0  0  0  0  0  0
  -11.0904    1.4585   -1.7492 C   0  0  0  0  0  0  0  0  0  0  0  0
  -12.9930    1.8350    5.1404 C   0  0  0  0  0  0  0  0  0  0  0  0
   -8.1731    2.1301    1.1585 N   0  0  0  0  0  0  0  0  0  0  0  0
  -10.4669    2.0121   -3.0314 C   0  0  0  0  0  0  0  0  0  0  0  0
   -7.0967    1.7996    0.1854 C   0  0  0  0  0  0  0  0  0  0  0  0
   -7.5913    2.8716    2.3084 C   0  0  0  0  0  0  0  0  0  0  0  0
  -11.2977    1.5834   -4.2451 C   0  0  0  0  0  0  0  0  0  0  0  0
   -6.0264    0.8825    0.8014 C   0  0  0  0  0  0  0  0  0  0  0  0
   -6.5831    2.0097    3.0874 C   0  0  0  0  0  0  0  0  0  0  0  0
  -12.6253    2.2352   -4.1900 N   0  0  0  0  0  0  0  0  0  0  0  0
   -6.1230    0.8279    2.2938 N   0  0  0  0  0  0  0  0  0  0  0  0
   -5.5368   -0.2570    2.9720 C   0  0  0  0  0  0  0  0  0  0  0  0
   -5.9199   -1.5373    2.7018 N   0  0  0  0  0  0  0  0  0  0  0  0
   -4.6731   -0.0467    4.0061 N   0  0  0  0  0  0  0  0  0  0  0  0
  -11.0952    1.6915    0.5854 C   0  0  0  0  0  0  0  0  0  0  0  0
  -10.4061    1.1572    1.7084 C   0  0  0  0  0  0  0  0  0  0  0  0
  -11.1212    0.8649    2.9030 C   0  0  0  0  0  0  0  0  0  0  0  0
  -12.5201    1.1070    2.9720 C   0  0  0  0  0  0  0  0  0  0  0  0
  -13.2051    1.6418    1.8494 C   0  0  0  0  0  0  0  0  0  0  0  0
  -12.4927    1.9328    0.6563 C   0  0  0  0  0  0  0  0  0  0  0  0
  2  4  1  0  0  0  0
  3  5  1  0  0  0  0
  4  7  1  0  0  0  0
  6  1  1  0  0  0  0
  7 10  1  0  0  0  0
  8  6  1  0  0  0  0
  8 11  1  0  0  0  0
  9  6  1  0  0  0  0
 10 13  1  0  0  0  0
 11 14  1  0  0  0  0
 12  9  1  0  0  0  0
 14 12  1  0  0  0  0
 14 15  1  0  0  0  0
 15 16  1  0  0  0  0
 15 17  1  0  0  0  0
 18  2  1  0  0  0  0
 18 23  2  0  0  0  0
 19  1  1  0  0  0  0
 19 18  1  0  0  0  0
 20 19  2  0  0  0  0
 21  3  1  0  0  0  0
 21 20  1  0  0  0  0
 22 21  2  0  0  0  0
 22 23  1  0  0  0  0
M  END
>  <CHROM.1>
168.90504813,-174.10050841,-139.05100889,66.62600684,-172.45384932,-58.66042600
59.77313356,21.65815637,132.88117217,52.59039599,77.24061164,-9.51337299
1.29157382,1.16127693,0.62218591,-0.13707927,1.69897644

>  <Name>
1uui_lig

>  <RI>
0

>  <Rbt.Current_Directory>
/home/itssahil/PROJECTS/Mol_Feturizer/New_Systems/rnas/1uui

>  <Rbt.Executable>
rbdock ($Id: //depot/dev/client3/rdock/2013.1/src/exe/rbdock.cxx#4 $)

>  <Rbt.Library>
libRbt.so (2013.1, Build901 2013/11/27)

>  <Rbt.Parameter_File>
/export/apps/rDock/src/rDock_2013.1_src/data/scripts/dock_solv.prm

>  <Rbt.Receptor>
prm/pocket_docking_5.prm

>  <SCORE>
-24.9039

>  <SCORE.INTER>
-18.1457

>  <SCORE.INTER.CONST>
1

>  <SCORE.INTER.POLAR>
-2.96335

>  <SCORE.INTER.ROT>
10

>  <SCORE.INTER.SOLV>
7.1814

>  <SCORE.INTER.VDW>
-14.8798

>  <SCORE.INTER.norm>
-0.788945

>  <SCORE.INTRA>
-6.75814

>  <SCORE.INTRA.DIHEDRAL>
-8.19797

>  <SCORE.INTRA.DIHEDRAL.0>
23.4151

>  <SCORE.INTRA.POLAR>
-0.440719

>  <SCORE.INTRA.POLAR.0>
0

>  <SCORE.INTRA.REPUL>
0

>  <SCORE.INTRA.REPUL.0>
0

>  <SCORE.INTRA.SOLV>
0.312349

>  <SCORE.INTRA.SOLV.lig_0>
-17.3568

>  <SCORE.INTRA.VDW>
-1.31688

>  <SCORE.INTRA.VDW.0>
1.0768

>  <SCORE.INTRA.norm>
-0.293832

>  <SCORE.RESTR>
0

>  <SCORE.RESTR.CAVITY>
0

>  <SCORE.RESTR.norm>
0

>  <SCORE.SYSTEM>
0

>  <SCORE.SYSTEM.CONST>
0

>  <SCORE.SYSTEM.DIHEDRAL>
0

>  <SCORE.SYSTEM.SOLV>
0

>  <SCORE.SYSTEM.norm>
0

>  <SCORE.heavy>
23

>  <SCORE.norm>
-1.08278

>  <RMSD>
6.341

$$$$
1uui_lig
 OpenBabel11021811413D
libRbt.so/2013.1/901 2013/11/27
 23 24  0  0  0  0  0  0  0  0999 V2000
   -6.7207   -0.2247   -0.3864 C   0  0  0  0  0  0  0  0  0  0  0  0
   -7.5435    0.8701   -2.9508 O   0  0  0  0  0  0  0  0  0  0  0  0
  -11.1863    1.2831    1.4153 O   0  0  0  0  0  0  0  0  0  0  0  0
   -6.5292    1.8771   -2.8462 C   0  0  0  0  0  0  0  0  0  0  0  0
  -11.6432   -0.0221    1.7782 C   0  0  0  0  0  0  0  0  0  0  0  0
   -6.8929   -1.7083   -0.2489 N   0  0  0  0  0  0  0  0  0  0  0  0
   -5.3307    1.4706   -3.7050 C   0  0  0  0  0  0  0  0  0  0  0  0
   -7.5818   -2.0557    1.0236 C   0  0  0  0  0  0  0  0  0  0  0  0
   -5.5798   -2.4031   -0.3076 C   0  0  0  0  0  0  0  0  0  0  0  0
   -5.7656    1.3010   -5.1642 C   0  0  0  0  0  0  0  0  0  0  0  0
   -6.7851   -1.5909    2.2544 C   0  0  0  0  0  0  0  0  0  0  0  0
   -4.6374   -1.9306    0.8126 C   0  0  0  0  0  0  0  0  0  0  0  0
   -6.6883    0.1491   -5.2739 N   0  0  0  0  0  0  0  0  0  0  0  0
   -5.3751   -1.2278    1.9082 N   0  0  0  0  0  0  0  0  0  0  0  0
   -4.6544   -0.3954    2.7847 C   0  0  0  0  0  0  0  0  0  0  0  0
   -5.2232    0.7301    3.3029 N   0  0  0  0  0  0  0  0  0  0  0  0
   -3.3319   -0.6209    3.0289 N   0  0  0  0  0  0  0  0  0  0  0  0
   -8.4543    0.9760   -1.8529 C   0  0  0  0  0  0  0  0  0  0  0  0
   -8.0963    0.4545   -0.5796 C   0  0  0  0  0  0  0  0  0  0  0  0
   -9.0072    0.5582    0.5082 C   0  0  0  0  0  0  0  0  0  0  0  0
  -10.2709    1.1814    0.3209 C   0  0  0  0  0  0  0  0  0  0  0  0
  -10.6249    1.7023   -0.9514 C   0  0  0  0  0  0  0  0  0  0  0  0
   -9.7171    1.5984   -2.0380 C   0  0  0  0  0  0  0  0  0  0  0  0
  2  4  1  0  0  0  0
  3  5  1  0  0  0  0
  4  7  1  0  0  0  0
  6  1  1  0  0  0  0
  7 10  1  0  0  0  0
  8  6  1  0  0  0  0
  8 11  1  0  0  0  0
  9  6  1  0  0  0  0
 10 13  1  0  0  0  0
 11 14  1  0  0  0  0
 12  9  1  0  0  0  0
 14 12  1  0  0  0  0
 14 15  1  0  0  0  0
 15 16  1  0  0  0  0
 15 17  1  0  0  0  0
 18  2  1  0  0  0  0
 18 23  2  0  0  0  0
 19  1  1  0  0  0  0
 19 18  1  0  0  0  0
 20 19  2  0  0  0  0
 21  3  1  0  0  0  0
 21 20  1  0  0  0  0
 22 21  2  0  0  0  0
 22 23  1  0  0  0  0
M  END
>  <CHROM.1>
160.63008671,58.81849785,-68.05267282,-66.44143838,-83.54900328,-45.56943335
-139.42826977,76.16966276,-78.86720206,-107.50531700,-67.21458254,-7.24010981
0.06653590,-0.31225922,-1.17838414,0.26638138,-1.32499746

>  <Name>
1uui_lig

>  <RI>
0

>  <Rbt.Current_Directory>
/home/itssahil/PROJECTS/Mol_Feturizer/New_Systems/rnas/1uui

>  <Rbt.Executable>
rbdock ($Id: //depot/dev/client3/rdock/2013.1/src/exe/rbdock.cxx#4 $)

>  <Rbt.Library>
libRbt.so (2013.1, Build901 2013/11/27)

>  <Rbt.Parameter_File>
/export/apps/rDock/src/rDock_2013.1_src/data/scripts/dock_solv.prm

>  <Rbt.Receptor>
prm/pocket_docking_7.prm

>  <SCORE>
-27.271

>  <SCORE.INTER>
-20.3665

>  <SCORE.INTER.CONST>
1

>  <SCORE.INTER.POLAR>
-3.21064

>  <SCORE.INTER.ROT>
10

>  <SCORE.INTER.SOLV>
6.24574

>  <SCORE.INTER.VDW>
-15.2241

>  <SCORE.INTER.norm>
-0.885501

>  <SCORE.INTRA>
-6.9045

>  <SCORE.INTRA.DIHEDRAL>
-7.0411

>  <SCORE.INTRA.DIHEDRAL.0>
23.4151

>  <SCORE.INTRA.POLAR>
-0.835075

>  <SCORE.INTRA.POLAR.0>
0

>  <SCORE.INTRA.REPUL>
0

>  <SCORE.INTRA.REPUL.0>
0

>  <SCORE.INTRA.SOLV>
0.629662

>  <SCORE.INTRA.SOLV.lig_0>
-17.3568

>  <SCORE.INTRA.VDW>
-0.859527

>  <SCORE.INTRA.VDW.0>
1.0768

>  <SCORE.INTRA.norm>
-0.300196

>  <SCORE.RESTR>
0

>  <SCORE.RESTR.CAVITY>
0

>  <SCORE.RESTR.norm>
0

>  <SCORE.SYSTEM>
0

>  <SCORE.SYSTEM.CONST>
0

>  <SCORE.SYSTEM.DIHEDRAL>
0

>  <SCORE.SYSTEM.SOLV>
0

>  <SCORE.SYSTEM.norm>
0

>  <SCORE.heavy>
23

>  <SCORE.norm>
-1.1857

>  <RMSD>
6.347

$$$$
1uui_lig
 OpenBabel11021811413D
libRbt.so/2013.1/901 2013/11/27
 23 24  0  0  0  0  0  0  0  0999 V2000
   -8.7854   -0.6735   -0.5262 C   0  0  0  0  0  0  0  0  0  0  0  0
   -8.0742    1.6034   -2.1879 O   0  0  0  0  0  0  0  0  0  0  0  0
  -13.5939    0.2458   -1.7486 O   0  0  0  0  0  0  0  0  0  0  0  0
   -7.6228    1.3780   -3.5293 C   0  0  0  0  0  0  0  0  0  0  0  0
  -14.2308    1.1229   -0.8163 C   0  0  0  0  0  0  0  0  0  0  0  0
   -8.3703    0.0304    0.7315 N   0  0  0  0  0  0  0  0  0  0  0  0
   -6.0951    1.3047   -3.5369 C   0  0  0  0  0  0  0  0  0  0  0  0
   -7.3111    1.0399    0.4603 C   0  0  0  0  0  0  0  0  0  0  0  0
   -7.8823   -0.9398    1.7469 C   0  0  0  0  0  0  0  0  0  0  0  0
   -5.5824    1.2123   -4.9776 C   0  0  0  0  0  0  0  0  0  0  0  0
   -6.0406    0.3979   -0.1225 C   0  0  0  0  0  0  0  0  0  0  0  0
   -6.6737   -1.7400    1.2320 C   0  0  0  0  0  0  0  0  0  0  0  0
   -6.1662    0.0212   -5.6341 N   0  0  0  0  0  0  0  0  0  0  0  0
   -6.0321   -1.0889    0.0476 N   0  0  0  0  0  0  0  0  0  0  0  0
   -5.1967   -1.8615   -0.7804 C   0  0  0  0  0  0  0  0  0  0  0  0
   -3.8542   -1.6281   -0.8286 N   0  0  0  0  0  0  0  0  0  0  0  0
   -5.7255   -2.7680   -1.6511 N   0  0  0  0  0  0  0  0  0  0  0  0
   -9.4588    1.2633   -2.0731 C   0  0  0  0  0  0  0  0  0  0  0  0
   -9.8550    0.1574   -1.2723 C   0  0  0  0  0  0  0  0  0  0  0  0
  -11.2329   -0.1799   -1.1647 C   0  0  0  0  0  0  0  0  0  0  0  0
  -12.2091    0.5875   -1.8564 C   0  0  0  0  0  0  0  0  0  0  0  0
  -11.8105    1.6920   -2.6543 C   0  0  0  0  0  0  0  0  0  0  0  0
  -10.4356    2.0288   -2.7632 C   0  0  0  0  0  0  0  0  0  0  0  0
  2  4  1  0  0  0  0
  3  5  1  0  0  0  0
  4  7  1  0  0  0  0
  6  1  1  0  0  0  0
  7 10  1  0  0  0  0
  8  6  1  0  0  0  0
  8 11  1  0  0  0  0
  9  6  1  0  0  0  0
 10 13  1  0  0  0  0
 11 14  1  0  0  0  0
 12  9  1  0  0  0  0
 14 12  1  0  0  0  0
 14 15  1  0  0  0  0
 15 16  1  0  0  0  0
 15 17  1  0  0  0  0
 18  2  1  0  0  0  0
 18 23  2  0  0  0  0
 19  1  1  0  0  0  0
 19 18  1  0  0  0  0
 20 19  2  0  0  0  0
 21  3  1  0  0  0  0
 21 20  1  0  0  0  0
 22 21  2  0  0  0  0
 22 23  1  0  0  0  0
M  END
>  <CHROM.1>
-161.89036873,-174.05315054,-84.44781598,-58.16146080,-160.16789134,56.56012521
-165.41433982,82.20663983,113.26168376,80.05809743,100.80485566,-8.28840851
0.10604396,-1.49996398,3.02266854,0.22661329,-1.17264309

>  <Name>
1uui_lig

>  <RI>
0

>  <Rbt.Current_Directory>
/home/itssahil/PROJECTS/Mol_Feturizer/New_Systems/rnas/1uui

>  <Rbt.Executable>
rbdock ($Id: //depot/dev/client3/rdock/2013.1/src/exe/rbdock.cxx#4 $)

>  <Rbt.Library>
libRbt.so (2013.1, Build901 2013/11/27)

>  <Rbt.Parameter_File>
/export/apps/rDock/src/rDock_2013.1_src/data/scripts/dock_solv.prm

>  <Rbt.Receptor>
prm/pocket_docking_8.prm

>  <SCORE>
-27.7754

>  <SCORE.INTER>
-21.7123

>  <SCORE.INTER.CONST>
1

>  <SCORE.INTER.POLAR>
-3.20855

>  <SCORE.INTER.ROT>
10

>  <SCORE.INTER.SOLV>
6.05801

>  <SCORE.INTER.VDW>
-16.0657

>  <SCORE.INTER.norm>
-0.944015

>  <SCORE.INTRA>
-6.06309

>  <SCORE.INTRA.DIHEDRAL>
-6.49753

>  <SCORE.INTRA.DIHEDRAL.0>
23.4151

>  <SCORE.INTRA.POLAR>
0

>  <SCORE.INTRA.POLAR.0>
0

>  <SCORE.INTRA.REPUL>
0

>  <SCORE.INTRA.REPUL.0>
0

>  <SCORE.INTRA.SOLV>
0.487025

>  <SCORE.INTRA.SOLV.lig_0>
-17.3568

>  <SCORE.INTRA.VDW>
-3.05784

>  <SCORE.INTRA.VDW.0>
1.0768

>  <SCORE.INTRA.norm>
-0.263612

>  <SCORE.RESTR>
0

>  <SCORE.RESTR.CAVITY>
0

>  <SCORE.RESTR.norm>
0

>  <SCORE.SYSTEM>
0

>  <SCORE.SYSTEM.CONST>
0

>  <SCORE.SYSTEM.DIHEDRAL>
0

>  <SCORE.SYSTEM.SOLV>
0

>  <SCORE.SYSTEM.norm>
0

>  <SCORE.heavy>
23

>  <SCORE.norm>
-1.20763

>  <RMSD>
6.354

$$$$
1uui_lig
 OpenBabel11021811413D
libRbt.so/2013.1/901 2013/11/27
 23 24  0  0  0  0  0  0  0  0999 V2000
   -8.1343    2.1751    0.3326 C   0  0  0  0  0  0  0  0  0  0  0  0
   -7.9282    3.0751   -2.4240 O   0  0  0  0  0  0  0  0  0  0  0  0
   -6.7148    6.8203    1.6997 O   0  0  0  0  0  0  0  0  0  0  0  0
   -6.7296    2.4340   -2.8782 C   0  0  0  0  0  0  0  0  0  0  0  0
   -5.3437    6.6856    2.0818 C   0  0  0  0  0  0  0  0  0  0  0  0
   -8.5851    2.1094    1.7616 N   0  0  0  0  0  0  0  0  0  0  0  0
   -7.0832    1.4396   -3.9851 C   0  0  0  0  0  0  0  0  0  0  0  0
   -7.4520    1.7853    2.6703 C   0  0  0  0  0  0  0  0  0  0  0  0
   -9.6624    1.0992    1.9328 C   0  0  0  0  0  0  0  0  0  0  0  0
   -5.8062    0.9434   -4.6709 C   0  0  0  0  0  0  0  0  0  0  0  0
   -6.8264    0.4184    2.3446 C   0  0  0  0  0  0  0  0  0  0  0  0
   -9.1931   -0.3063    1.5199 C   0  0  0  0  0  0  0  0  0  0  0  0
   -6.1574   -0.0536   -5.7067 N   0  0  0  0  0  0  0  0  0  0  0  0
   -7.7017   -0.4027    1.4506 N   0  0  0  0  0  0  0  0  0  0  0  0
   -7.1243   -1.4562    0.7176 C   0  0  0  0  0  0  0  0  0  0  0  0
   -6.9969   -1.3749   -0.6374 N   0  0  0  0  0  0  0  0  0  0  0  0
   -6.8033   -2.6336    1.3262 N   0  0  0  0  0  0  0  0  0  0  0  0
   -7.6205    4.0119   -1.3878 C   0  0  0  0  0  0  0  0  0  0  0  0
   -7.7078    3.6179   -0.0245 C   0  0  0  0  0  0  0  0  0  0  0  0
   -7.4052    4.5544    1.0027 C   0  0  0  0  0  0  0  0  0  0  0  0
   -7.0169    5.8795    0.6654 C   0  0  0  0  0  0  0  0  0  0  0  0
   -6.9294    6.2695   -0.6968 C   0  0  0  0  0  0  0  0  0  0  0  0
   -7.2323    5.3361   -1.7228 C   0  0  0  0  0  0  0  0  0  0  0  0
  2  4  1  0  0  0  0
  3  5  1  0  0  0  0
  4  7  1  0  0  0  0
  6  1  1  0  0  0  0
  7 10  1  0  0  0  0
  8  6  1  0  0  0  0
  8 11  1  0  0  0  0
  9  6  1  0  0  0  0
 10 13  1  0  0  0  0
 11 14  1  0  0  0  0
 12  9  1  0  0  0  0
 14 12  1  0  0  0  0
 14 15  1  0  0  0  0
 15 16  1  0  0  0  0
 15 17  1  0  0  0  0
 18  2  1  0  0  0  0
 18 23  2  0  0  0  0
 19  1  1  0  0  0  0
 19 18  1  0  0  0  0
 20 19  2  0  0  0  0
 21  3  1  0  0  0  0
 21 20  1  0  0  0  0
 22 21  2  0  0  0  0
 22 23  1  0  0  0  0
M  END
>  <CHROM.1>
-179.94126288,169.09589787,-90.62634172,177.99323769,162.55086641,-110.19239886
-111.94526356,-9.05327141,-94.22483961,-161.61941407,86.06969439,-7.29337797
2.19061453,-0.23686604,1.39027106,1.37548522,0.44954281

>  <Name>
1uui_lig

>  <RI>
0

>  <Rbt.Current_Directory>
/home/itssahil/PROJECTS/Mol_Feturizer/New_Systems/rnas/1uui

>  <Rbt.Executable>
rbdock ($Id: //depot/dev/client3/rdock/2013.1/src/exe/rbdock.cxx#4 $)

>  <Rbt.Library>
libRbt.so (2013.1, Build901 2013/11/27)

>  <Rbt.Parameter_File>
/export/apps/rDock/src/rDock_2013.1_src/data/scripts/dock_solv.prm

>  <Rbt.Receptor>
prm/pocket_docking_8.prm

>  <SCORE>
-35.7913

>  <SCORE.INTER>
-29.9407

>  <SCORE.INTER.CONST>
1

>  <SCORE.INTER.POLAR>
-5.71993

>  <SCORE.INTER.ROT>
10

>  <SCORE.INTER.SOLV>
6.17668

>  <SCORE.INTER.VDW>
-13.2196

>  <SCORE.INTER.norm>
-1.30177

>  <SCORE.INTRA>
-5.85059

>  <SCORE.INTRA.DIHEDRAL>
-6.52154

>  <SCORE.INTRA.DIHEDRAL.0>
23.4151

>  <SCORE.INTRA.POLAR>
0

>  <SCORE.INTRA.POLAR.0>
0

>  <SCORE.INTRA.REPUL>
0

>  <SCORE.INTRA.REPUL.0>
0

>  <SCORE.INTRA.SOLV>
-0.0258607

>  <SCORE.INTRA.SOLV.lig_0>
-17.3568

>  <SCORE.INTRA.VDW>
-2.57688

>  <SCORE.INTRA.VDW.0>
1.0768

>  <SCORE.INTRA.norm>
-0.254373

>  <SCORE.RESTR>
0

>  <SCORE.RESTR.CAVITY>
0

>  <SCORE.RESTR.norm>
0

>  <SCORE.SYSTEM>
0

>  <SCORE.SYSTEM.CONST>
0

>  <SCORE.SYSTEM.DIHEDRAL>
0

>  <SCORE.SYSTEM.SOLV>
0

>  <SCORE.SYSTEM.norm>
0

>  <SCORE.heavy>
23

>  <SCORE.norm>
-1.55614

>  <RMSD>
6.366

$$$$
1uui_lig
 OpenBabel11021811413D
libRbt.so/2013.1/901 2013/11/27
 23 24  0  0  0  0  0  0  0  0999 V2000
   -8.6296    0.8620    0.0223 C   0  0  0  0  0  0  0  0  0  0  0  0
   -9.9504    0.7692   -2.5658 O   0  0  0  0  0  0  0  0  0  0  0  0
  -13.1395   -0.0698    2.0850 O   0  0  0  0  0  0  0  0  0  0  0  0
  -10.2019    2.0715   -3.1088 C   0  0  0  0  0  0  0  0  0  0  0  0
  -13.5237   -1.4451    2.1556 C   0  0  0  0  0  0  0  0  0  0  0  0
   -7.8585   -0.1668   -0.7499 N   0  0  0  0  0  0  0  0  0  0  0  0
  -11.5395    2.0541   -3.8502 C   0  0  0  0  0  0  0  0  0  0  0  0
   -7.8491   -1.4765   -0.0433 C   0  0  0  0  0  0  0  0  0  0  0  0
   -6.4600    0.2813   -0.9820 C   0  0  0  0  0  0  0  0  0  0  0  0
  -12.5439    2.9672   -3.1399 C   0  0  0  0  0  0  0  0  0  0  0  0
   -7.1852   -1.3785    1.3407 C   0  0  0  0  0  0  0  0  0  0  0  0
   -5.7180    0.5334    0.3416 C   0  0  0  0  0  0  0  0  0  0  0  0
  -13.7057    3.2063   -4.0251 N   0  0  0  0  0  0  0  0  0  0  0  0
   -6.4064   -0.1110    1.5032 N   0  0  0  0  0  0  0  0  0  0  0  0
   -6.1091    0.3405    2.8025 C   0  0  0  0  0  0  0  0  0  0  0  0
   -6.7072    1.4574    3.3064 N   0  0  0  0  0  0  0  0  0  0  0  0
   -5.1203   -0.2477    3.5345 N   0  0  0  0  0  0  0  0  0  0  0  0
  -10.7492    0.5628   -1.3973 C   0  0  0  0  0  0  0  0  0  0  0  0
  -10.1476    0.5984   -0.1096 C   0  0  0  0  0  0  0  0  0  0  0  0
  -10.9453    0.3881    1.0494 C   0  0  0  0  0  0  0  0  0  0  0  0
  -12.3393    0.1433    0.9186 C   0  0  0  0  0  0  0  0  0  0  0  0
  -12.9374    0.1097   -0.3684 C   0  0  0  0  0  0  0  0  0  0  0  0
  -12.1421    0.3183   -1.5259 C   0  0  0  0  0  0  0  0  0  0  0  0
  2  4  1  0  0  0  0
  3  5  1  0  0  0  0
  4  7  1  0  0  0  0
  6  1  1  0  0  0  0
  7 10  1  0  0  0  0
  8  6  1  0  0  0  0
  8 11  1  0  0  0  0
  9  6  1  0  0  0  0
 10 13  1  0  0  0  0
 11 14  1  0  0  0  0
 12  9  1  0  0  0  0
 14 12  1  0  0  0  0
 14 15  1  0  0  0  0
 15 16  1  0  0  0  0
 15 17  1  0  0  0  0
 18  2  1  0  0  0  0
 18 23  2  0  0  0  0
 19  1  1  0  0  0  0
 19 18  1  0  0  0  0
 20 19  2  0  0  0  0
 21  3  1  0  0  0  0
 21 20  1  0  0  0  0
 22 21  2  0  0  0  0
 22 23  1  0  0  0  0
M  END
>  <CHROM.1>
-76.58842883,114.56642602,-74.89779969,166.26268861,-70.08819168,-110.13686158
24.61677393,-42.50481534,-105.93347341,-57.59014612,-108.41444125,-9.63513583
0.53306385,-0.11921578,-0.62445856,-0.02767946,-1.16304390

>  <Name>
1uui_lig

>  <RI>
0

>  <Rbt.Current_Directory>
/home/itssahil/PROJECTS/Mol_Feturizer/New_Systems/rnas/1uui

>  <Rbt.Executable>
rbdock ($Id: //depot/dev/client3/rdock/2013.1/src/exe/rbdock.cxx#4 $)

>  <Rbt.Library>
libRbt.so (2013.1, Build901 2013/11/27)

>  <Rbt.Parameter_File>
/export/apps/rDock/src/rDock_2013.1_src/data/scripts/dock_solv.prm

>  <Rbt.Receptor>
prm/pocket_docking_4.prm

>  <SCORE>
-24.6881

>  <SCORE.INTER>
-19.259

>  <SCORE.INTER.CONST>
1

>  <SCORE.INTER.POLAR>
-2.05483

>  <SCORE.INTER.ROT>
10

>  <SCORE.INTER.SOLV>
7.82097

>  <SCORE.INTER.VDW>
-18.8635

>  <SCORE.INTER.norm>
-0.837346

>  <SCORE.INTRA>
-5.42917

>  <SCORE.INTRA.DIHEDRAL>
-2.21389

>  <SCORE.INTRA.DIHEDRAL.0>
23.4151

>  <SCORE.INTRA.POLAR>
-0.595291

>  <SCORE.INTRA.POLAR.0>
0

>  <SCORE.INTRA.REPUL>
0

>  <SCORE.INTRA.REPUL.0>
0

>  <SCORE.INTRA.SOLV>
0.279955

>  <SCORE.INTRA.SOLV.lig_0>
-17.3568

>  <SCORE.INTRA.VDW>
-2.43821

>  <SCORE.INTRA.VDW.0>
1.0768

>  <SCORE.INTRA.norm>
-0.236051

>  <SCORE.RESTR>
0

>  <SCORE.RESTR.CAVITY>
0

>  <SCORE.RESTR.norm>
0

>  <SCORE.SYSTEM>
0

>  <SCORE.SYSTEM.CONST>
0

>  <SCORE.SYSTEM.DIHEDRAL>
0

>  <SCORE.SYSTEM.SOLV>
0

>  <SCORE.SYSTEM.norm>
0

>  <SCORE.heavy>
23

>  <SCORE.norm>
-1.0734

>  <RMSD>
6.368

$$$$
1uui_lig
 OpenBabel11021811413D
libRbt.so/2013.1/901 2013/11/27
 23 24  0  0  0  0  0  0  0  0999 V2000
  -10.0477    0.1660    0.3079 C   0  0  0  0  0  0  0  0  0  0  0  0
  -11.7929    2.3039   -0.6058 O   0  0  0  0  0  0  0  0  0  0  0  0
  -13.0337   -0.2110    4.3580 O   0  0  0  0  0  0  0  0  0  0  0  0
  -11.9007    3.7272   -0.4767 C   0  0  0  0  0  0  0  0  0  0  0  0
  -14.3612   -0.7393    4.3040 C   0  0  0  0  0  0  0  0  0  0  0  0
   -9.2064    1.3504   -0.0646 N   0  0  0  0  0  0  0  0  0  0  0  0
  -11.4346    4.3838   -1.7770 C   0  0  0  0  0  0  0  0  0  0  0  0
   -8.3031    1.0336   -1.2041 C   0  0  0  0  0  0  0  0  0  0  0  0
   -8.3986    1.8137    1.0945 C   0  0  0  0  0  0  0  0  0  0  0  0
   -9.9136    4.2581   -1.9112 C   0  0  0  0  0  0  0  0  0  0  0  0
   -7.3286   -0.1073   -0.8655 C   0  0  0  0  0  0  0  0  0  0  0  0
   -7.4593    0.7094    1.6089 C   0  0  0  0  0  0  0  0  0  0  0  0
   -9.4775    4.8745   -3.1841 N   0  0  0  0  0  0  0  0  0  0  0  0
   -7.2742   -0.3837    0.6043 N   0  0  0  0  0  0  0  0  0  0  0  0
   -6.7947   -1.6322    1.0424 C   0  0  0  0  0  0  0  0  0  0  0  0
   -7.0097   -2.7591    0.3055 N   0  0  0  0  0  0  0  0  0  0  0  0
   -6.2241   -1.7657    2.2737 N   0  0  0  0  0  0  0  0  0  0  0  0
  -12.1000    1.6741    0.6412 C   0  0  0  0  0  0  0  0  0  0  0  0
  -11.2758    0.6232    1.1287 C   0  0  0  0  0  0  0  0  0  0  0  0
  -11.5879   -0.0033    2.3673 C   0  0  0  0  0  0  0  0  0  0  0  0
  -12.7205    0.4214    3.1138 C   0  0  0  0  0  0  0  0  0  0  0  0
  -13.5408    1.4718    2.6249 C   0  0  0  0  0  0  0  0  0  0  0  0
  -13.2310    2.0970    1.3885 C   0  0  0  0  0  0  0  0  0  0  0  0
  2  4  1  0  0  0  0
  3  5  1  0  0  0  0
  4  7  1  0  0  0  0
  6  1  1  0  0  0  0
  7 10  1  0  0  0  0
  8  6  1  0  0  0  0
  8 11  1  0  0  0  0
  9  6  1  0  0  0  0
 10 13  1  0  0  0  0
 11 14  1  0  0  0  0
 12  9  1  0  0  0  0
 14 12  1  0  0  0  0
 14 15  1  0  0  0  0
 15 16  1  0  0  0  0
 15 17  1  0  0  0  0
 18  2  1  0  0  0  0
 18 23  2  0  0  0  0
 19  1  1  0  0  0  0
 19 18  1  0  0  0  0
 20 19  2  0  0  0  0
 21  3  1  0  0  0  0
 21 20  1  0  0  0  0
 22 21  2  0  0  0  0
 22 23  1  0  0  0  0
M  END
>  <CHROM.1>
174.42033451,-71.91228953,-160.86645513,178.96401496,50.98000632,-33.17649311
-9.54203285,115.97816075,-135.01486111,50.84283408,-122.84160487,-10.13107939
1.01431466,0.70240907,0.08748764,-0.40776628,2.38419611

>  <Name>
1uui_lig

>  <RI>
0

>  <Rbt.Current_Directory>
/home/itssahil/PROJECTS/Mol_Feturizer/New_Systems/rnas/1uui

>  <Rbt.Executable>
rbdock ($Id: //depot/dev/client3/rdock/2013.1/src/exe/rbdock.cxx#4 $)

>  <Rbt.Library>
libRbt.so (2013.1, Build901 2013/11/27)

>  <Rbt.Parameter_File>
/export/apps/rDock/src/rDock_2013.1_src/data/scripts/dock_solv.prm

>  <Rbt.Receptor>
prm/pocket_docking_4.prm

>  <SCORE>
-25.1447

>  <SCORE.INTER>
-17.8051

>  <SCORE.INTER.CONST>
1

>  <SCORE.INTER.POLAR>
-3.63498

>  <SCORE.INTER.ROT>
10

>  <SCORE.INTER.SOLV>
5.70238

>  <SCORE.INTER.VDW>
-11.9209

>  <SCORE.INTER.norm>
-0.774136

>  <SCORE.INTRA>
-7.33957

>  <SCORE.INTRA.DIHEDRAL>
-11.5666

>  <SCORE.INTRA.DIHEDRAL.0>
23.4151

>  <SCORE.INTRA.POLAR>
-0.358682

>  <SCORE.INTRA.POLAR.0>
0

>  <SCORE.INTRA.REPUL>
0

>  <SCORE.INTRA.REPUL.0>
0

>  <SCORE.INTRA.SOLV>
0.424546

>  <SCORE.INTRA.SOLV.lig_0>
-17.3568

>  <SCORE.INTRA.VDW>
-0.54903

>  <SCORE.INTRA.VDW.0>
1.0768

>  <SCORE.INTRA.norm>
-0.319112

>  <SCORE.RESTR>
0

>  <SCORE.RESTR.CAVITY>
0

>  <SCORE.RESTR.norm>
0

>  <SCORE.SYSTEM>
0

>  <SCORE.SYSTEM.CONST>
0

>  <SCORE.SYSTEM.DIHEDRAL>
0

>  <SCORE.SYSTEM.SOLV>
0

>  <SCORE.SYSTEM.norm>
0

>  <SCORE.heavy>
23

>  <SCORE.norm>
-1.09325

>  <RMSD>
6.369

$$$$
1uui_lig
 OpenBabel11021811413D
libRbt.so/2013.1/901 2013/11/27
 23 24  0  0  0  0  0  0  0  0999 V2000
   -9.3053    1.4540   -0.5154 C   0  0  0  0  0  0  0  0  0  0  0  0
  -12.0460    1.5257   -1.4822 O   0  0  0  0  0  0  0  0  0  0  0  0
   -8.5490    5.7392   -3.0702 O   0  0  0  0  0  0  0  0  0  0  0  0
  -12.2591    0.6226   -2.5744 C   0  0  0  0  0  0  0  0  0  0  0  0
   -8.9350    6.9493   -2.4140 C   0  0  0  0  0  0  0  0  0  0  0  0
   -8.8501    2.0195    0.7970 N   0  0  0  0  0  0  0  0  0  0  0  0
  -12.9244   -0.6500   -2.0481 C   0  0  0  0  0  0  0  0  0  0  0  0
   -7.3978    2.3435    0.7702 C   0  0  0  0  0  0  0  0  0  0  0  0
   -9.1261    1.0712    1.9084 C   0  0  0  0  0  0  0  0  0  0  0  0
  -14.4483   -0.5180   -2.1338 C   0  0  0  0  0  0  0  0  0  0  0  0
   -6.5354    1.0973    0.5070 C   0  0  0  0  0  0  0  0  0  0  0  0
   -8.4086   -0.2731    1.6984 C   0  0  0  0  0  0  0  0  0  0  0  0
  -14.9000   -0.8836   -3.4950 N   0  0  0  0  0  0  0  0  0  0  0  0
   -7.3082   -0.1711    0.6899 N   0  0  0  0  0  0  0  0  0  0  0  0
   -6.8295   -1.3497    0.0881 C   0  0  0  0  0  0  0  0  0  0  0  0
   -6.7784   -1.4683   -1.2693 N   0  0  0  0  0  0  0  0  0  0  0  0
   -6.5334   -2.4461    0.8430 N   0  0  0  0  0  0  0  0  0  0  0  0
  -11.1657    2.5798   -1.8825 C   0  0  0  0  0  0  0  0  0  0  0  0
   -9.8166    2.5878   -1.4342 C   0  0  0  0  0  0  0  0  0  0  0  0
   -8.9460    3.6406   -1.8313 C   0  0  0  0  0  0  0  0  0  0  0  0
   -9.4253    4.6804   -2.6735 C   0  0  0  0  0  0  0  0  0  0  0  0
  -10.7726    4.6689   -3.1205 C   0  0  0  0  0  0  0  0  0  0  0  0
  -11.6426    3.6194   -2.7240 C   0  0  0  0  0  0  0  0  0  0  0  0
  2  4  1  0  0  0  0
  3  5  1  0  0  0  0
  4  7  1  0  0  0  0
  6  1  1  0  0  0  0
  7 10  1  0  0  0  0
  8  6  1  0  0  0  0
  8 11  1  0  0  0  0
  9  6  1  0  0  0  0
 10 13  1  0  0  0  0
 11 14  1  0  0  0  0
 12  9  1  0  0  0  0
 14 12  1  0  0  0  0
 14 15  1  0  0  0  0
 15 16  1  0  0  0  0
 15 17  1  0  0  0  0
 18  2  1  0  0  0  0
 18 23  2  0  0  0  0
 19  1  1  0  0  0  0
 19 18  1  0  0  0  0
 20 19  2  0  0  0  0
 21  3  1  0  0  0  0
 21 20  1  0  0  0  0
 22 21  2  0  0  0  0
 22 23  1  0  0  0  0
M  END
>  <CHROM.1>
167.01043548,91.57975683,-91.81433918,84.02262161,41.26544645,-65.38012444
47.07131098,-28.76909554,-105.22217916,-119.00928644,-109.42268173,-9.70022237
1.53277653,-1.10392975,-0.64284233,-0.44471746,-0.31633208

>  <Name>
1uui_lig

>  <RI>
0

>  <Rbt.Current_Directory>
/home/itssahil/PROJECTS/Mol_Feturizer/New_Systems/rnas/1uui

>  <Rbt.Executable>
rbdock ($Id: //depot/dev/client3/rdock/2013.1/src/exe/rbdock.cxx#4 $)

>  <Rbt.Library>
libRbt.so (2013.1, Build901 2013/11/27)

>  <Rbt.Parameter_File>
/export/apps/rDock/src/rDock_2013.1_src/data/scripts/dock_solv.prm

>  <Rbt.Receptor>
prm/pocket_docking_5.prm

>  <SCORE>
-23.9725

>  <SCORE.INTER>
-20.8205

>  <SCORE.INTER.CONST>
1

>  <SCORE.INTER.POLAR>
-3.25589

>  <SCORE.INTER.ROT>
10

>  <SCORE.INTER.SOLV>
6.37348

>  <SCORE.INTER.VDW>
-15.4185

>  <SCORE.INTER.norm>
-0.905238

>  <SCORE.INTRA>
-3.45206

>  <SCORE.INTRA.DIHEDRAL>
-1.79484

>  <SCORE.INTRA.DIHEDRAL.0>
23.4151

>  <SCORE.INTRA.POLAR>
0

>  <SCORE.INTRA.POLAR.0>
0

>  <SCORE.INTRA.REPUL>
0

>  <SCORE.INTRA.REPUL.0>
0

>  <SCORE.INTRA.SOLV>
0.0560516

>  <SCORE.INTRA.SOLV.lig_0>
-17.3568

>  <SCORE.INTRA.VDW>
-2.58267

>  <SCORE.INTRA.VDW.0>
1.0768

>  <SCORE.INTRA.norm>
-0.15009

>  <SCORE.RESTR>
0.300016

>  <SCORE.RESTR.CAVITY>
0.300016

>  <SCORE.RESTR.norm>
0.0130442

>  <SCORE.SYSTEM>
0

>  <SCORE.SYSTEM.CONST>
0

>  <SCORE.SYSTEM.DIHEDRAL>
0

>  <SCORE.SYSTEM.SOLV>
0

>  <SCORE.SYSTEM.norm>
0

>  <SCORE.heavy>
23

>  <SCORE.norm>
-1.04228

>  <RMSD>
6.373

$$$$
1uui_lig
 OpenBabel11021811413D
libRbt.so/2013.1/901 2013/11/27
 23 24  0  0  0  0  0  0  0  0999 V2000
  -10.0641    2.0804   -0.7406 C   0  0  0  0  0  0  0  0  0  0  0  0
   -7.6160    1.1058   -1.9688 O   0  0  0  0  0  0  0  0  0  0  0  0
   -7.4213    2.6216    3.5238 O   0  0  0  0  0  0  0  0  0  0  0  0
   -7.1308    2.1775   -2.7873 C   0  0  0  0  0  0  0  0  0  0  0  0
   -6.7527    3.8794    3.6458 C   0  0  0  0  0  0  0  0  0  0  0  0
  -11.1581    1.3395   -0.0309 N   0  0  0  0  0  0  0  0  0  0  0  0
   -7.0330    1.6955   -4.2355 C   0  0  0  0  0  0  0  0  0  0  0  0
  -11.4122    0.0167   -0.6635 C   0  0  0  0  0  0  0  0  0  0  0  0
  -12.4155    2.1329   -0.0185 C   0  0  0  0  0  0  0  0  0  0  0  0
   -6.0232    0.5479   -4.3384 C   0  0  0  0  0  0  0  0  0  0  0  0
  -11.8565    0.1562   -2.1295 C   0  0  0  0  0  0  0  0  0  0  0  0
  -12.9031    2.4454   -1.4435 C   0  0  0  0  0  0  0  0  0  0  0  0
   -6.1626   -0.1161   -5.6537 N   0  0  0  0  0  0  0  0  0  0  0  0
  -12.2640    1.5569   -2.4635 N   0  0  0  0  0  0  0  0  0  0  0  0
  -12.2775    1.9558   -3.8130 C   0  0  0  0  0  0  0  0  0  0  0  0
  -11.2877    1.5649   -4.6654 N   0  0  0  0  0  0  0  0  0  0  0  0
  -13.2032    2.8488   -4.2657 N   0  0  0  0  0  0  0  0  0  0  0  0
   -7.5705    1.4830   -0.5897 C   0  0  0  0  0  0  0  0  0  0  0  0
   -8.7424    1.9662    0.0540 C   0  0  0  0  0  0  0  0  0  0  0  0
   -8.6912    2.3444    1.4245 C   0  0  0  0  0  0  0  0  0  0  0  0
   -7.4714    2.2390    2.1464 C   0  0  0  0  0  0  0  0  0  0  0  0
   -6.3032    1.7551    1.5011 C   0  0  0  0  0  0  0  0  0  0  0  0
   -6.3528    1.3783    0.1332 C   0  0  0  0  0  0  0  0  0  0  0  0
  2  4  1  0  0  0  0
  3  5  1  0  0  0  0
  4  7  1  0  0  0  0
  6  1  1  0  0  0  0
  7 10  1  0  0  0  0
  8  6  1  0  0  0  0
  8 11  1  0  0  0  0
  9  6  1  0  0  0  0
 10 13  1  0  0  0  0
 11 14  1  0  0  0  0
 12  9  1  0  0  0  0
 14 12  1  0  0  0  0
 14 15  1  0  0  0  0
 15 16  1  0  0  0  0
 15 17  1  0  0  0  0
 18  2  1  0  0  0  0
 18 23  2  0  0  0  0
 19  1  1  0  0  0  0
 19 18  1  0  0  0  0
 20 19  2  0  0  0  0
 21  3  1  0  0  0  0
 21 20  1  0  0  0  0
 22 21  2  0  0  0  0
 22 23  1  0  0  0  0
M  END
>  <CHROM.1>
173.38370469,-62.48251131,-101.47304533,166.89417976,-131.32974792,-40.47325029
164.22504001,-95.49324632,97.93175099,125.81488186,-105.10321425,-9.24200240
1.69391203,-1.27658451,2.20021123,0.08166450,-1.78542756

>  <Name>
1uui_lig

>  <RI>
0

>  <Rbt.Current_Directory>
/home/itssahil/PROJECTS/Mol_Feturizer/New_Systems/rnas/1uui

>  <Rbt.Executable>
rbdock ($Id: //depot/dev/client3/rdock/2013.1/src/exe/rbdock.cxx#4 $)

>  <Rbt.Library>
libRbt.so (2013.1, Build901 2013/11/27)

>  <Rbt.Parameter_File>
/export/apps/rDock/src/rDock_2013.1_src/data/scripts/dock_solv.prm

>  <Rbt.Receptor>
prm/pocket_docking_8.prm

>  <SCORE>
-28.4824

>  <SCORE.INTER>
-25.4037

>  <SCORE.INTER.CONST>
1

>  <SCORE.INTER.POLAR>
-4.62591

>  <SCORE.INTER.ROT>
10

>  <SCORE.INTER.SOLV>
7.62252

>  <SCORE.INTER.VDW>
-14.3236

>  <SCORE.INTER.norm>
-1.10451

>  <SCORE.INTRA>
-3.07876

>  <SCORE.INTRA.DIHEDRAL>
-2.76438

>  <SCORE.INTRA.DIHEDRAL.0>
23.4151

>  <SCORE.INTRA.POLAR>
0

>  <SCORE.INTRA.POLAR.0>
0

>  <SCORE.INTRA.REPUL>
0

>  <SCORE.INTRA.REPUL.0>
0

>  <SCORE.INTRA.SOLV>
0.134457

>  <SCORE.INTRA.SOLV.lig_0>
-17.3568

>  <SCORE.INTRA.VDW>
-1.7638

>  <SCORE.INTRA.VDW.0>
1.0768

>  <SCORE.INTRA.norm>
-0.133859

>  <SCORE.RESTR>
0

>  <SCORE.RESTR.CAVITY>
0

>  <SCORE.RESTR.norm>
0

>  <SCORE.SYSTEM>
0

>  <SCORE.SYSTEM.CONST>
0

>  <SCORE.SYSTEM.DIHEDRAL>
0

>  <SCORE.SYSTEM.SOLV>
0

>  <SCORE.SYSTEM.norm>
0

>  <SCORE.heavy>
23

>  <SCORE.norm>
-1.23837

>  <RMSD>
6.383

$$$$
1uui_lig
 OpenBabel11021811413D
libRbt.so/2013.1/901 2013/11/27
 23 24  0  0  0  0  0  0  0  0999 V2000
  -10.9753    0.4990    2.2311 C   0  0  0  0  0  0  0  0  0  0  0  0
  -12.9003    2.3557    3.3705 O   0  0  0  0  0  0  0  0  0  0  0  0
  -14.6214   -2.9865    2.3692 O   0  0  0  0  0  0  0  0  0  0  0  0
  -13.1196    2.6944    4.7457 C   0  0  0  0  0  0  0  0  0  0  0  0
  -15.4558   -3.0068    1.2084 C   0  0  0  0  0  0  0  0  0  0  0  0
  -10.9779    1.8321    1.5439 N   0  0  0  0  0  0  0  0  0  0  0  0
  -12.1974    1.8460    5.6226 C   0  0  0  0  0  0  0  0  0  0  0  0
  -11.2190    1.6855    0.0828 C   0  0  0  0  0  0  0  0  0  0  0  0
   -9.6928    2.5463    1.7651 C   0  0  0  0  0  0  0  0  0  0  0  0
  -12.7049    1.8445    7.0682 C   0  0  0  0  0  0  0  0  0  0  0  0
  -10.1271    0.8432   -0.5986 C   0  0  0  0  0  0  0  0  0  0  0  0
   -8.4967    1.7407    1.2297 C   0  0  0  0  0  0  0  0  0  0  0  0
  -12.5613    3.2007    7.6433 N   0  0  0  0  0  0  0  0  0  0  0  0
   -8.9221    0.6726    0.2723 N   0  0  0  0  0  0  0  0  0  0  0  0
   -8.0393   -0.3909    0.0078 C   0  0  0  0  0  0  0  0  0  0  0  0
   -8.4905   -1.6767   -0.0372 N   0  0  0  0  0  0  0  0  0  0  0  0
   -6.6953   -0.1756   -0.0755 N   0  0  0  0  0  0  0  0  0  0  0  0
  -13.3287    1.0138    3.1220 C   0  0  0  0  0  0  0  0  0  0  0  0
  -12.4229    0.0701    2.5650 C   0  0  0  0  0  0  0  0  0  0  0  0
  -12.8549   -1.2622    2.3154 C   0  0  0  0  0  0  0  0  0  0  0  0
  -14.1883   -1.6469    2.6226 C   0  0  0  0  0  0  0  0  0  0  0  0
  -15.0900   -0.7027    3.1799 C   0  0  0  0  0  0  0  0  0  0  0  0
  -14.6604    0.6275    3.4284 C   0  0  0  0  0  0  0  0  0  0  0  0
  2  4  1  0  0  0  0
  3  5  1  0  0  0  0
  4  7  1  0  0  0  0
  6  1  1  0  0  0  0
  7 10  1  0  0  0  0
  8  6  1  0  0  0  0
  8 11  1  0  0  0  0
  9  6  1  0  0  0  0
 10 13  1  0  0  0  0
 11 14  1  0  0  0  0
 12  9  1  0  0  0  0
 14 12  1  0  0  0  0
 14 15  1  0  0  0  0
 15 16  1  0  0  0  0
 15 17  1  0  0  0  0
 18  2  1  0  0  0  0
 18 23  2  0  0  0  0
 19  1  1  0  0  0  0
 19 18  1  0  0  0  0
 20 19  2  0  0  0  0
 21  3  1  0  0  0  0
 21 20  1  0  0  0  0
 22 21  2  0  0  0  0
 22 23  1  0  0  0  0
M  END
>  <CHROM.1>
66.63119539,-161.88150147,-83.99114020,-67.35882243,179.36504653,-55.67700922
-43.25617321,82.03331644,-124.34389595,-44.36781496,-104.83815750,-11.67800456
0.52268924,2.43606418,-0.59884552,0.47755383,0.82388011

>  <Name>
1uui_lig

>  <RI>
0

>  <Rbt.Current_Directory>
/home/itssahil/PROJECTS/Mol_Feturizer/New_Systems/rnas/1uui

>  <Rbt.Executable>
rbdock ($Id: //depot/dev/client3/rdock/2013.1/src/exe/rbdock.cxx#4 $)

>  <Rbt.Library>
libRbt.so (2013.1, Build901 2013/11/27)

>  <Rbt.Parameter_File>
/export/apps/rDock/src/rDock_2013.1_src/data/scripts/dock_solv.prm

>  <Rbt.Receptor>
prm/pocket_docking_4.prm

>  <SCORE>
-22.3882

>  <SCORE.INTER>
-14.1467

>  <SCORE.INTER.CONST>
1

>  <SCORE.INTER.POLAR>
-2.28074

>  <SCORE.INTER.ROT>
10

>  <SCORE.INTER.SOLV>
5.21913

>  <SCORE.INTER.VDW>
-13.835

>  <SCORE.INTER.norm>
-0.615073

>  <SCORE.INTRA>
-8.24148

>  <SCORE.INTRA.DIHEDRAL>
-8.37525

>  <SCORE.INTRA.DIHEDRAL.0>
23.4151

>  <SCORE.INTRA.POLAR>
-0.770294

>  <SCORE.INTRA.POLAR.0>
0

>  <SCORE.INTRA.REPUL>
0

>  <SCORE.INTRA.REPUL.0>
0

>  <SCORE.INTRA.SOLV>
0.358904

>  <SCORE.INTRA.SOLV.lig_0>
-17.3568

>  <SCORE.INTRA.VDW>
-1.61431

>  <SCORE.INTRA.VDW.0>
1.0768

>  <SCORE.INTRA.norm>
-0.358325

>  <SCORE.RESTR>
0

>  <SCORE.RESTR.CAVITY>
0

>  <SCORE.RESTR.norm>
0

>  <SCORE.SYSTEM>
0

>  <SCORE.SYSTEM.CONST>
0

>  <SCORE.SYSTEM.DIHEDRAL>
0

>  <SCORE.SYSTEM.SOLV>
0

>  <SCORE.SYSTEM.norm>
0

>  <SCORE.heavy>
23

>  <SCORE.norm>
-0.973399

>  <RMSD>
6.396

$$$$
1uui_lig
 OpenBabel11021811413D
libRbt.so/2013.1/901 2013/11/27
 23 24  0  0  0  0  0  0  0  0999 V2000
  -10.0345    0.6359    0.3004 C   0  0  0  0  0  0  0  0  0  0  0  0
  -11.7171    2.5834   -1.0515 O   0  0  0  0  0  0  0  0  0  0  0  0
  -12.6040    1.7006    4.5107 O   0  0  0  0  0  0  0  0  0  0  0  0
  -12.8474    2.1242   -1.8035 C   0  0  0  0  0  0  0  0  0  0  0  0
  -12.0729    2.7959    5.2606 C   0  0  0  0  0  0  0  0  0  0  0  0
   -9.0740    1.5885   -0.3472 N   0  0  0  0  0  0  0  0  0  0  0  0
  -12.6748    2.5354   -3.2665 C   0  0  0  0  0  0  0  0  0  0  0  0
   -8.3874    0.9572   -1.5068 C   0  0  0  0  0  0  0  0  0  0  0  0
   -8.0598    2.0662    0.6295 C   0  0  0  0  0  0  0  0  0  0  0  0
  -11.6046    1.6646   -3.9325 C   0  0  0  0  0  0  0  0  0  0  0  0
   -7.5677   -0.2753   -1.0885 C   0  0  0  0  0  0  0  0  0  0  0  0
   -7.2460    0.9010    1.2179 C   0  0  0  0  0  0  0  0  0  0  0  0
  -10.2623    2.1953   -3.6053 N   0  0  0  0  0  0  0  0  0  0  0  0
   -7.3665   -0.3414    0.3930 N   0  0  0  0  0  0  0  0  0  0  0  0
   -7.0353   -1.5777    0.9780 C   0  0  0  0  0  0  0  0  0  0  0  0
   -6.5112   -1.6359    2.2354 N   0  0  0  0  0  0  0  0  0  0  0  0
   -7.1043   -2.7312    0.2539 N   0  0  0  0  0  0  0  0  0  0  0  0
  -11.9352    2.3630    0.3449 C   0  0  0  0  0  0  0  0  0  0  0  0
  -11.1376    1.4198    1.0487 C   0  0  0  0  0  0  0  0  0  0  0  0
  -11.3612    1.2008    2.4365 C   0  0  0  0  0  0  0  0  0  0  0  0
  -12.3794    1.9235    3.1157 C   0  0  0  0  0  0  0  0  0  0  0  0
  -13.1733    2.8656    2.4104 C   0  0  0  0  0  0  0  0  0  0  0  0
  -12.9518    3.0843    1.0252 C   0  0  0  0  0  0  0  0  0  0  0  0
  2  4  1  0  0  0  0
  3  5  1  0  0  0  0
  4  7  1  0  0  0  0
  6  1  1  0  0  0  0
  7 10  1  0  0  0  0
  8  6  1  0  0  0  0
  8 11  1  0  0  0  0
  9  6  1  0  0  0  0
 10 13  1  0  0  0  0
 11 14  1  0  0  0  0
 12  9  1  0  0  0  0
 14 12  1  0  0  0  0
 14 15  1  0  0  0  0
 15 16  1  0  0  0  0
 15 17  1  0  0  0  0
 18  2  1  0  0  0  0
 18 23  2  0  0  0  0
 19  1  1  0  0  0  0
 19 18  1  0  0  0  0
 20 19  2  0  0  0  0
 21  3  1  0  0  0  0
 21 20  1  0  0  0  0
 22 21  2  0  0  0  0
 22 23  1  0  0  0  0
M  END
>  <CHROM.1>
172.58208863,73.48696897,-155.53635322,-81.76962178,162.56488241,162.98456281
129.50545119,157.59982143,113.03709507,56.76013629,104.71249985,-10.16335908
1.18992926,0.38189300,-0.10198784,-0.56716502,1.65351330

>  <Name>
1uui_lig

>  <RI>
0

>  <Rbt.Current_Directory>
/home/itssahil/PROJECTS/Mol_Feturizer/New_Systems/rnas/1uui

>  <Rbt.Executable>
rbdock ($Id: //depot/dev/client3/rdock/2013.1/src/exe/rbdock.cxx#4 $)

>  <Rbt.Library>
libRbt.so (2013.1, Build901 2013/11/27)

>  <Rbt.Parameter_File>
/export/apps/rDock/src/rDock_2013.1_src/data/scripts/dock_solv.prm

>  <Rbt.Receptor>
prm/pocket_docking_4.prm

>  <SCORE>
-29.1097

>  <SCORE.INTER>
-20.08

>  <SCORE.INTER.CONST>
1

>  <SCORE.INTER.POLAR>
-3.66243

>  <SCORE.INTER.ROT>
10

>  <SCORE.INTER.SOLV>
6.18302

>  <SCORE.INTER.VDW>
-13.5062

>  <SCORE.INTER.norm>
-0.873041

>  <SCORE.INTRA>
-9.02979

>  <SCORE.INTRA.DIHEDRAL>
-6.17313

>  <SCORE.INTRA.DIHEDRAL.0>
23.4151

>  <SCORE.INTRA.POLAR>
-1.22372

>  <SCORE.INTRA.POLAR.0>
0

>  <SCORE.INTRA.REPUL>
0

>  <SCORE.INTRA.REPUL.0>
0

>  <SCORE.INTRA.SOLV>
1.07496

>  <SCORE.INTRA.SOLV.lig_0>
-17.3568

>  <SCORE.INTRA.VDW>
-2.32006

>  <SCORE.INTRA.VDW.0>
1.0768

>  <SCORE.INTRA.norm>
-0.3926

>  <SCORE.RESTR>
0

>  <SCORE.RESTR.CAVITY>
0

>  <SCORE.RESTR.norm>
0

>  <SCORE.SYSTEM>
0

>  <SCORE.SYSTEM.CONST>
0

>  <SCORE.SYSTEM.DIHEDRAL>
0

>  <SCORE.SYSTEM.SOLV>
0

>  <SCORE.SYSTEM.norm>
0

>  <SCORE.heavy>
23

>  <SCORE.norm>
-1.26564

>  <RMSD>
6.396

$$$$
1uui_lig
 OpenBabel11021811413D
libRbt.so/2013.1/901 2013/11/27
 23 24  0  0  0  0  0  0  0  0999 V2000
   -5.6488   -1.0777   -0.6229 C   0  0  0  0  0  0  0  0  0  0  0  0
   -4.2397   -2.3885   -2.8018 O   0  0  0  0  0  0  0  0  0  0  0  0
   -7.3881    2.1997   -4.0427 O   0  0  0  0  0  0  0  0  0  0  0  0
   -2.9439   -1.9889   -2.3381 C   0  0  0  0  0  0  0  0  0  0  0  0
   -8.7346    1.9827   -3.6139 C   0  0  0  0  0  0  0  0  0  0  0  0
   -6.9667   -1.6575   -0.2028 N   0  0  0  0  0  0  0  0  0  0  0  0
   -1.9844   -3.1744   -2.4528 C   0  0  0  0  0  0  0  0  0  0  0  0
   -7.8988   -0.5956    0.2645 C   0  0  0  0  0  0  0  0  0  0  0  0
   -6.7843   -2.6661    0.8742 C   0  0  0  0  0  0  0  0  0  0  0  0
   -2.3788   -4.2659   -1.4528 C   0  0  0  0  0  0  0  0  0  0  0  0
   -7.3441    0.1608    1.4835 C   0  0  0  0  0  0  0  0  0  0  0  0
   -6.1191   -2.0533    2.1185 C   0  0  0  0  0  0  0  0  0  0  0  0
   -2.0765   -3.8088   -0.0779 N   0  0  0  0  0  0  0  0  0  0  0  0
   -6.1960   -0.5592    2.1183 N   0  0  0  0  0  0  0  0  0  0  0  0
   -5.3126    0.1648    2.9405 C   0  0  0  0  0  0  0  0  0  0  0  0
   -5.6325    1.4170    3.3748 N   0  0  0  0  0  0  0  0  0  0  0  0
   -4.0640   -0.3123    3.2104 N   0  0  0  0  0  0  0  0  0  0  0  0
   -5.0272   -1.2348   -3.1101 C   0  0  0  0  0  0  0  0  0  0  0  0
   -5.7349   -0.5607   -2.0776 C   0  0  0  0  0  0  0  0  0  0  0  0
   -6.5204    0.5835   -2.3898 C   0  0  0  0  0  0  0  0  0  0  0  0
   -6.5963    1.0501   -3.7303 C   0  0  0  0  0  0  0  0  0  0  0  0
   -5.8875    0.3755   -4.7589 C   0  0  0  0  0  0  0  0  0  0  0  0
   -5.1041   -0.7672   -4.4487 C   0  0  0  0  0  0  0  0  0  0  0  0
  2  4  1  0  0  0  0
  3  5  1  0  0  0  0
  4  7  1  0  0  0  0
  6  1  1  0  0  0  0
  7 10  1  0  0  0  0
  8  6  1  0  0  0  0
  8 11  1  0  0  0  0
  9  6  1  0  0  0  0
 10 13  1  0  0  0  0
 11 14  1  0  0  0  0
 12  9  1  0  0  0  0
 14 12  1  0  0  0  0
 14 15  1  0  0  0  0
 15 16  1  0  0  0  0
 15 17  1  0  0  0  0
 18  2  1  0  0  0  0
 18 23  2  0  0  0  0
 19  1  1  0  0  0  0
 19 18  1  0  0  0  0
 20 19  2  0  0  0  0
 21  3  1  0  0  0  0
 21 20  1  0  0  0  0
 22 21  2  0  0  0  0
 22 23  1  0  0  0  0
M  END
>  <CHROM.1>
-161.57615616,-68.05126512,-83.26276704,-70.54894221,-155.98771255,13.19481984
-47.45804260,-109.32927265,-83.76303898,-110.59564407,-56.64699431,-5.47297029
-0.85011521,-0.86651419,1.30559873,-0.74598895,1.62505875

>  <Name>
1uui_lig

>  <RI>
0

>  <Rbt.Current_Directory>
/home/itssahil/PROJECTS/Mol_Feturizer/New_Systems/rnas/1uui

>  <Rbt.Executable>
rbdock ($Id: //depot/dev/client3/rdock/2013.1/src/exe/rbdock.cxx#4 $)

>  <Rbt.Library>
libRbt.so (2013.1, Build901 2013/11/27)

>  <Rbt.Parameter_File>
/export/apps/rDock/src/rDock_2013.1_src/data/scripts/dock_solv.prm

>  <Rbt.Receptor>
prm/pocket_docking_8.prm

>  <SCORE>
-24.8228

>  <SCORE.INTER>
-20.4916

>  <SCORE.INTER.CONST>
1

>  <SCORE.INTER.POLAR>
-2.77467

>  <SCORE.INTER.ROT>
10

>  <SCORE.INTER.SOLV>
6.5211

>  <SCORE.INTER.VDW>
-16.8526

>  <SCORE.INTER.norm>
-0.89094

>  <SCORE.INTRA>
-4.33118

>  <SCORE.INTRA.DIHEDRAL>
-6.37413

>  <SCORE.INTRA.DIHEDRAL.0>
23.4151

>  <SCORE.INTRA.POLAR>
0

>  <SCORE.INTRA.POLAR.0>
0

>  <SCORE.INTRA.REPUL>
0

>  <SCORE.INTRA.REPUL.0>
0

>  <SCORE.INTRA.SOLV>
0.239885

>  <SCORE.INTRA.SOLV.lig_0>
-17.3568

>  <SCORE.INTRA.VDW>
-1.26406

>  <SCORE.INTRA.VDW.0>
1.0768

>  <SCORE.INTRA.norm>
-0.188312

>  <SCORE.RESTR>
0

>  <SCORE.RESTR.CAVITY>
0

>  <SCORE.RESTR.norm>
0

>  <SCORE.SYSTEM>
0

>  <SCORE.SYSTEM.CONST>
0

>  <SCORE.SYSTEM.DIHEDRAL>
0

>  <SCORE.SYSTEM.SOLV>
0

>  <SCORE.SYSTEM.norm>
0

>  <SCORE.heavy>
23

>  <SCORE.norm>
-1.07925

>  <RMSD>
6.400

$$$$
1uui_lig
 OpenBabel11021811413D
libRbt.so/2013.1/901 2013/11/27
 23 24  0  0  0  0  0  0  0  0999 V2000
   -9.7822    0.1102    0.2332 C   0  0  0  0  0  0  0  0  0  0  0  0
  -12.1067   -0.5969   -1.3631 O   0  0  0  0  0  0  0  0  0  0  0  0
  -12.9980    1.4145    3.8965 O   0  0  0  0  0  0  0  0  0  0  0  0
  -11.6352    0.4503   -2.2205 C   0  0  0  0  0  0  0  0  0  0  0  0
  -12.8443    0.3540    4.8430 C   0  0  0  0  0  0  0  0  0  0  0  0
   -9.0206    1.3904    0.4077 N   0  0  0  0  0  0  0  0  0  0  0  0
  -12.7997    1.3826   -2.5578 C   0  0  0  0  0  0  0  0  0  0  0  0
   -7.8701    1.4662   -0.5333 C   0  0  0  0  0  0  0  0  0  0  0  0
   -8.5292    1.5301    1.8039 C   0  0  0  0  0  0  0  0  0  0  0  0
  -12.3165    2.5157   -3.4686 C   0  0  0  0  0  0  0  0  0  0  0  0
   -6.8654    0.3239   -0.3063 C   0  0  0  0  0  0  0  0  0  0  0  0
   -7.5994    0.3694    2.1968 C   0  0  0  0  0  0  0  0  0  0  0  0
  -13.4712    3.3450   -3.8803 N   0  0  0  0  0  0  0  0  0  0  0  0
   -7.0874   -0.3698    1.0011 N   0  0  0  0  0  0  0  0  0  0  0  0
   -6.5721   -1.6676    1.1764 C   0  0  0  0  0  0  0  0  0  0  0  0
   -6.9365   -2.6811    0.3403 N   0  0  0  0  0  0  0  0  0  0  0  0
   -5.8053   -1.9712    2.2623 N   0  0  0  0  0  0  0  0  0  0  0  0
  -12.3280   -0.0884   -0.0445 C   0  0  0  0  0  0  0  0  0  0  0  0
  -11.2221    0.2702    0.7738 C   0  0  0  0  0  0  0  0  0  0  0  0
  -11.4470    0.7713    2.0861 C   0  0  0  0  0  0  0  0  0  0  0  0
  -12.7738    0.9123    2.5761 C   0  0  0  0  0  0  0  0  0  0  0  0
  -13.8760    0.5546    1.7560 C   0  0  0  0  0  0  0  0  0  0  0  0
  -13.6528    0.0534    0.4466 C   0  0  0  0  0  0  0  0  0  0  0  0
  2  4  1  0  0  0  0
  3  5  1  0  0  0  0
  4  7  1  0  0  0  0
  6  1  1  0  0  0  0
  7 10  1  0  0  0  0
  8  6  1  0  0  0  0
  8 11  1  0  0  0  0
  9  6  1  0  0  0  0
 10 13  1  0  0  0  0
 11 14  1  0  0  0  0
 12  9  1  0  0  0  0
 14 12  1  0  0  0  0
 14 15  1  0  0  0  0
 15 16  1  0  0  0  0
 15 17  1  0  0  0  0
 18  2  1  0  0  0  0
 18 23  2  0  0  0  0
 19  1  1  0  0  0  0
 19 18  1  0  0  0  0
 20 19  2  0  0  0  0
 21  3  1  0  0  0  0
 21 20  1  0  0  0  0
 22 21  2  0  0  0  0
 22 23  1  0  0  0  0
M  END
>  <CHROM.1>
-74.10815031,179.69247384,-157.92005021,175.27757732,-60.53291139,-58.10032552
176.40417600,-79.82410307,-70.83051117,128.42061557,-82.08773519,-10.38276660
0.43209688,0.46576769,-0.42246702,0.28978007,-1.36088018

>  <Name>
1uui_lig

>  <RI>
0

>  <Rbt.Current_Directory>
/home/itssahil/PROJECTS/Mol_Feturizer/New_Systems/rnas/1uui

>  <Rbt.Executable>
rbdock ($Id: //depot/dev/client3/rdock/2013.1/src/exe/rbdock.cxx#4 $)

>  <Rbt.Library>
libRbt.so (2013.1, Build901 2013/11/27)

>  <Rbt.Parameter_File>
/export/apps/rDock/src/rDock_2013.1_src/data/scripts/dock_solv.prm

>  <Rbt.Receptor>
prm/pocket_docking_4.prm

>  <SCORE>
-32.6582

>  <SCORE.INTER>
-26.7213

>  <SCORE.INTER.CONST>
1

>  <SCORE.INTER.POLAR>
-4.34807

>  <SCORE.INTER.ROT>
10

>  <SCORE.INTER.SOLV>
6.3726

>  <SCORE.INTER.VDW>
-15.7115

>  <SCORE.INTER.norm>
-1.16179

>  <SCORE.INTRA>
-5.93692

>  <SCORE.INTRA.DIHEDRAL>
-8.04975

>  <SCORE.INTRA.DIHEDRAL.0>
23.4151

>  <SCORE.INTRA.POLAR>
0

>  <SCORE.INTRA.POLAR.0>
0

>  <SCORE.INTRA.REPUL>
0

>  <SCORE.INTRA.REPUL.0>
0

>  <SCORE.INTRA.SOLV>
-0.0436144

>  <SCORE.INTRA.SOLV.lig_0>
-17.3568

>  <SCORE.INTRA.VDW>
-1.89024

>  <SCORE.INTRA.VDW.0>
1.0768

>  <SCORE.INTRA.norm>
-0.258127

>  <SCORE.RESTR>
0

>  <SCORE.RESTR.CAVITY>
0

>  <SCORE.RESTR.norm>
0

>  <SCORE.SYSTEM>
0

>  <SCORE.SYSTEM.CONST>
0

>  <SCORE.SYSTEM.DIHEDRAL>
0

>  <SCORE.SYSTEM.SOLV>
0

>  <SCORE.SYSTEM.norm>
0

>  <SCORE.heavy>
23

>  <SCORE.norm>
-1.41992

>  <RMSD>
6.438

$$$$
1uui_lig
 OpenBabel11021811413D
libRbt.so/2013.1/901 2013/11/27
 23 24  0  0  0  0  0  0  0  0999 V2000
   -7.1158    0.8863   -0.2758 C   0  0  0  0  0  0  0  0  0  0  0  0
   -7.9777    2.9432   -2.1407 O   0  0  0  0  0  0  0  0  0  0  0  0
  -12.0011   -0.0276    0.5962 O   0  0  0  0  0  0  0  0  0  0  0  0
   -7.7941    2.4140   -3.4599 C   0  0  0  0  0  0  0  0  0  0  0  0
  -12.7401    0.8446    1.4548 C   0  0  0  0  0  0  0  0  0  0  0  0
   -6.7322   -0.4144   -0.9164 N   0  0  0  0  0  0  0  0  0  0  0  0
   -6.8127    3.3044   -4.2235 C   0  0  0  0  0  0  0  0  0  0  0  0
   -7.3577   -1.5672   -0.2133 C   0  0  0  0  0  0  0  0  0  0  0  0
   -5.2552   -0.5844   -0.9306 C   0  0  0  0  0  0  0  0  0  0  0  0
   -6.3963    2.6234   -5.5312 C   0  0  0  0  0  0  0  0  0  0  0  0
   -6.9129   -1.6544    1.2566 C   0  0  0  0  0  0  0  0  0  0  0  0
   -4.6686   -0.5664    0.4913 C   0  0  0  0  0  0  0  0  0  0  0  0
   -7.5716    2.5064   -6.4230 N   0  0  0  0  0  0  0  0  0  0  0  0
   -5.7155   -0.8007    1.5340 N   0  0  0  0  0  0  0  0  0  0  0  0
   -5.4450   -0.4230    2.8625 C   0  0  0  0  0  0  0  0  0  0  0  0
   -5.5716    0.8757    3.2576 N   0  0  0  0  0  0  0  0  0  0  0  0
   -4.9224   -1.3187    3.7481 N   0  0  0  0  0  0  0  0  0  0  0  0
   -8.9854    2.1992   -1.4499 C   0  0  0  0  0  0  0  0  0  0  0  0
   -8.6122    1.1826   -0.5287 C   0  0  0  0  0  0  0  0  0  0  0  0
   -9.6180    0.4422    0.1525 C   0  0  0  0  0  0  0  0  0  0  0  0
  -10.9912    0.7192   -0.0883 C   0  0  0  0  0  0  0  0  0  0  0  0
  -11.3605    1.7357   -1.0078 C   0  0  0  0  0  0  0  0  0  0  0  0
  -10.3577    2.4745   -1.6891 C   0  0  0  0  0  0  0  0  0  0  0  0
  2  4  1  0  0  0  0
  3  5  1  0  0  0  0
  4  7  1  0  0  0  0
  6  1  1  0  0  0  0
  7 10  1  0  0  0  0
  8  6  1  0  0  0  0
  8 11  1  0  0  0  0
  9  6  1  0  0  0  0
 10 13  1  0  0  0  0
 11 14  1  0  0  0  0
 12  9  1  0  0  0  0
 14 12  1  0  0  0  0
 14 15  1  0  0  0  0
 15 16  1  0  0  0  0
 15 17  1  0  0  0  0
 18  2  1  0  0  0  0
 18 23  2  0  0  0  0
 19  1  1  0  0  0  0
 19 18  1  0  0  0  0
 20 19  2  0  0  0  0
 21  3  1  0  0  0  0
 21 20  1  0  0  0  0
 22 21  2  0  0  0  0
 22 23  1  0  0  0  0
M  END
>  <CHROM.1>
174.64051116,169.36091133,-69.55590020,65.39765928,-93.10653033,-111.53978478
-58.33777350,-56.62712338,99.01959569,-107.09650743,115.36162033,-7.82384596
0.76858218,-0.59725710,-1.25340586,0.15131892,-1.14162333

>  <Name>
1uui_lig

>  <RI>
0

>  <Rbt.Current_Directory>
/home/itssahil/PROJECTS/Mol_Feturizer/New_Systems/rnas/1uui

>  <Rbt.Executable>
rbdock ($Id: //depot/dev/client3/rdock/2013.1/src/exe/rbdock.cxx#4 $)

>  <Rbt.Library>
libRbt.so (2013.1, Build901 2013/11/27)

>  <Rbt.Parameter_File>
/export/apps/rDock/src/rDock_2013.1_src/data/scripts/dock_solv.prm

>  <Rbt.Receptor>
prm/pocket_docking_6.prm

>  <SCORE>
-29.6278

>  <SCORE.INTER>
-23.8279

>  <SCORE.INTER.CONST>
1

>  <SCORE.INTER.POLAR>
-3.73744

>  <SCORE.INTER.ROT>
10

>  <SCORE.INTER.SOLV>
6.58346

>  <SCORE.INTER.VDW>
-15.8883

>  <SCORE.INTER.norm>
-1.036

>  <SCORE.INTRA>
-5.80354

>  <SCORE.INTRA.DIHEDRAL>
-7.54091

>  <SCORE.INTRA.DIHEDRAL.0>
23.4151

>  <SCORE.INTRA.POLAR>
0

>  <SCORE.INTRA.POLAR.0>
0

>  <SCORE.INTRA.REPUL>
0

>  <SCORE.INTRA.REPUL.0>
0

>  <SCORE.INTRA.SOLV>
0.126469

>  <SCORE.INTRA.SOLV.lig_0>
-17.3568

>  <SCORE.INTRA.VDW>
-2.09632

>  <SCORE.INTRA.VDW.0>
1.0768

>  <SCORE.INTRA.norm>
-0.252328

>  <SCORE.RESTR>
0.00368736

>  <SCORE.RESTR.CAVITY>
0.00368736

>  <SCORE.RESTR.norm>
0.00016032

>  <SCORE.SYSTEM>
0

>  <SCORE.SYSTEM.CONST>
0

>  <SCORE.SYSTEM.DIHEDRAL>
0

>  <SCORE.SYSTEM.SOLV>
0

>  <SCORE.SYSTEM.norm>
0

>  <SCORE.heavy>
23

>  <SCORE.norm>
-1.28817

>  <RMSD>
6.439

$$$$
1uui_lig
 OpenBabel11021811413D
libRbt.so/2013.1/901 2013/11/27
 23 24  0  0  0  0  0  0  0  0999 V2000
  -10.3321    0.1245    0.6105 C   0  0  0  0  0  0  0  0  0  0  0  0
  -12.6056    1.1941   -0.8520 O   0  0  0  0  0  0  0  0  0  0  0  0
  -13.6154   -1.3723    4.1377 O   0  0  0  0  0  0  0  0  0  0  0  0
  -12.8319    2.6046   -0.7364 C   0  0  0  0  0  0  0  0  0  0  0  0
  -14.4100   -0.5176    4.9636 C   0  0  0  0  0  0  0  0  0  0  0  0
   -9.8486    1.5403    0.7158 N   0  0  0  0  0  0  0  0  0  0  0  0
  -13.2344    3.1599   -2.1034 C   0  0  0  0  0  0  0  0  0  0  0  0
   -8.8587    1.8531   -0.3505 C   0  0  0  0  0  0  0  0  0  0  0  0
   -9.2398    1.7960    2.0479 C   0  0  0  0  0  0  0  0  0  0  0  0
  -12.1619    2.8198   -3.1432 C   0  0  0  0  0  0  0  0  0  0  0  0
   -7.6124    0.9562   -0.2592 C   0  0  0  0  0  0  0  0  0  0  0  0
   -8.0430    0.8666    2.3124 C   0  0  0  0  0  0  0  0  0  0  0  0
  -12.3367    1.4209   -3.5936 N   0  0  0  0  0  0  0  0  0  0  0  0
   -7.5266    0.2436    1.0540 N   0  0  0  0  0  0  0  0  0  0  0  0
   -6.7275   -0.9111    1.1481 C   0  0  0  0  0  0  0  0  0  0  0  0
   -7.2477   -2.0829    1.6121 N   0  0  0  0  0  0  0  0  0  0  0  0
   -5.3868   -0.8514    0.9062 N   0  0  0  0  0  0  0  0  0  0  0  0
  -12.8561    0.5532    0.4020 C   0  0  0  0  0  0  0  0  0  0  0  0
  -11.7760    0.0140    1.1530 C   0  0  0  0  0  0  0  0  0  0  0  0
  -12.0305   -0.6265    2.3974 C   0  0  0  0  0  0  0  0  0  0  0  0
  -13.3612   -0.7263    2.8871 C   0  0  0  0  0  0  0  0  0  0  0  0
  -14.4374   -0.1858    2.1355 C   0  0  0  0  0  0  0  0  0  0  0  0
  -14.1847    0.4527    0.8929 C   0  0  0  0  0  0  0  0  0  0  0  0
  2  4  1  0  0  0  0
  3  5  1  0  0  0  0
  4  7  1  0  0  0  0
  6  1  1  0  0  0  0
  7 10  1  0  0  0  0
  8  6  1  0  0  0  0
  8 11  1  0  0  0  0
  9  6  1  0  0  0  0
 10 13  1  0  0  0  0
 11 14  1  0  0  0  0
 12  9  1  0  0  0  0
 14 12  1  0  0  0  0
 14 15  1  0  0  0  0
 15 16  1  0  0  0  0
 15 17  1  0  0  0  0
 18  2  1  0  0  0  0
 18 23  2  0  0  0  0
 19  1  1  0  0  0  0
 19 18  1  0  0  0  0
 20 19  2  0  0  0  0
 21  3  1  0  0  0  0
 21 20  1  0  0  0  0
 22 21  2  0  0  0  0
 22 23  1  0  0  0  0
M  END
>  <CHROM.1>
-152.59165685,-56.08978534,-150.64890985,79.97803104,-51.44143104,-125.71247286
-105.10039879,6.98230393,-110.07716693,72.36837184,128.69722431,-10.84673809
0.52974053,0.76136776,0.09557108,-0.10783221,2.07637211

>  <Name>
1uui_lig

>  <RI>
0

>  <Rbt.Current_Directory>
/home/itssahil/PROJECTS/Mol_Feturizer/New_Systems/rnas/1uui

>  <Rbt.Executable>
rbdock ($Id: //depot/dev/client3/rdock/2013.1/src/exe/rbdock.cxx#4 $)

>  <Rbt.Library>
libRbt.so (2013.1, Build901 2013/11/27)

>  <Rbt.Parameter_File>
/export/apps/rDock/src/rDock_2013.1_src/data/scripts/dock_solv.prm

>  <Rbt.Receptor>
prm/pocket_docking_3.prm

>  <SCORE>
-20.0788

>  <SCORE.INTER>
-13.694

>  <SCORE.INTER.CONST>
1

>  <SCORE.INTER.POLAR>
-2.51151

>  <SCORE.INTER.ROT>
10

>  <SCORE.INTER.SOLV>
5.1197

>  <SCORE.INTER.VDW>
-12.7309

>  <SCORE.INTER.norm>
-0.595392

>  <SCORE.INTRA>
-6.39937

>  <SCORE.INTRA.DIHEDRAL>
-5.56132

>  <SCORE.INTRA.DIHEDRAL.0>
23.4151

>  <SCORE.INTRA.POLAR>
-0.62677

>  <SCORE.INTRA.POLAR.0>
0

>  <SCORE.INTRA.REPUL>
0

>  <SCORE.INTRA.REPUL.0>
0

>  <SCORE.INTRA.SOLV>
0.652314

>  <SCORE.INTRA.SOLV.lig_0>
-17.3568

>  <SCORE.INTRA.VDW>
-1.81386

>  <SCORE.INTRA.VDW.0>
1.0768

>  <SCORE.INTRA.norm>
-0.278234

>  <SCORE.RESTR>
0.0146225

>  <SCORE.RESTR.CAVITY>
0.0146225

>  <SCORE.RESTR.norm>
0.000635759

>  <SCORE.SYSTEM>
0

>  <SCORE.SYSTEM.CONST>
0

>  <SCORE.SYSTEM.DIHEDRAL>
0

>  <SCORE.SYSTEM.SOLV>
0

>  <SCORE.SYSTEM.norm>
0

>  <SCORE.heavy>
23

>  <SCORE.norm>
-0.872989

>  <RMSD>
6.452

$$$$
1uui_lig
 OpenBabel11021811413D
libRbt.so/2013.1/901 2013/11/27
 23 24  0  0  0  0  0  0  0  0999 V2000
   -9.4437    0.3242    0.0400 C   0  0  0  0  0  0  0  0  0  0  0  0
  -12.2079    0.6211   -0.8100 O   0  0  0  0  0  0  0  0  0  0  0  0
   -8.1254    2.5117   -4.3119 O   0  0  0  0  0  0  0  0  0  0  0  0
  -13.1501   -0.1767   -1.5379 C   0  0  0  0  0  0  0  0  0  0  0  0
   -7.4811    3.6441   -3.7232 C   0  0  0  0  0  0  0  0  0  0  0  0
   -8.6658    1.2961    0.8766 N   0  0  0  0  0  0  0  0  0  0  0  0
  -14.3459   -0.4855   -0.6357 C   0  0  0  0  0  0  0  0  0  0  0  0
   -7.3844    1.6696    0.2184 C   0  0  0  0  0  0  0  0  0  0  0  0
   -8.3855    0.7321    2.2234 C   0  0  0  0  0  0  0  0  0  0  0  0
  -15.4219   -1.2327   -1.4299 C   0  0  0  0  0  0  0  0  0  0  0  0
   -6.4726    0.4500    0.0013 C   0  0  0  0  0  0  0  0  0  0  0  0
   -7.5735   -0.5713    2.1347 C   0  0  0  0  0  0  0  0  0  0  0  0
  -16.6177   -1.4269   -0.5797 N   0  0  0  0  0  0  0  0  0  0  0  0
   -6.9173   -0.7348    0.8002 N   0  0  0  0  0  0  0  0  0  0  0  0
   -6.4875   -2.0165    0.4090 C   0  0  0  0  0  0  0  0  0  0  0  0
   -6.2747   -2.9935    1.3360 N   0  0  0  0  0  0  0  0  0  0  0  0
   -6.1456   -2.2708   -0.8863 N   0  0  0  0  0  0  0  0  0  0  0  0
  -11.1817    1.0913   -1.6887 C   0  0  0  0  0  0  0  0  0  0  0  0
   -9.8153    0.9683   -1.3158 C   0  0  0  0  0  0  0  0  0  0  0  0
   -8.7984    1.4414   -2.1910 C   0  0  0  0  0  0  0  0  0  0  0  0
   -9.1492    2.0349   -3.4340 C   0  0  0  0  0  0  0  0  0  0  0  0
  -10.5144    2.1551   -3.8041 C   0  0  0  0  0  0  0  0  0  0  0  0
  -11.5302    1.6843   -2.9310 C   0  0  0  0  0  0  0  0  0  0  0  0
  2  4  1  0  0  0  0
  3  5  1  0  0  0  0
  4  7  1  0  0  0  0
  6  1  1  0  0  0  0
  7 10  1  0  0  0  0
  8  6  1  0  0  0  0
  8 11  1  0  0  0  0
  9  6  1  0  0  0  0
 10 13  1  0  0  0  0
 11 14  1  0  0  0  0
 12  9  1  0  0  0  0
 14 12  1  0  0  0  0
 14 15  1  0  0  0  0
 15 16  1  0  0  0  0
 15 17  1  0  0  0  0
 18  2  1  0  0  0  0
 18 23  2  0  0  0  0
 19  1  1  0  0  0  0
 19 18  1  0  0  0  0
 20 19  2  0  0  0  0
 21  3  1  0  0  0  0
 21 20  1  0  0  0  0
 22 21  2  0  0  0  0
 22 23  1  0  0  0  0
M  END
>  <CHROM.1>
-171.27711026,175.04734870,-62.06182022,-175.34357575,-179.67000791,147.83053728
-7.01113808,81.68986234,-132.11134794,-120.85236185,-67.89964696,-9.67444692
0.32847163,-0.89028072,0.15249200,0.12377837,2.30299210

>  <Name>
1uui_lig

>  <RI>
0

>  <Rbt.Current_Directory>
/home/itssahil/PROJECTS/Mol_Feturizer/New_Systems/rnas/1uui

>  <Rbt.Executable>
rbdock ($Id: //depot/dev/client3/rdock/2013.1/src/exe/rbdock.cxx#4 $)

>  <Rbt.Library>
libRbt.so (2013.1, Build901 2013/11/27)

>  <Rbt.Parameter_File>
/export/apps/rDock/src/rDock_2013.1_src/data/scripts/dock_solv.prm

>  <Rbt.Receptor>
prm/pocket_docking_5.prm

>  <SCORE>
-23.8161

>  <SCORE.INTER>
-19.4533

>  <SCORE.INTER.CONST>
1

>  <SCORE.INTER.POLAR>
-3.1903

>  <SCORE.INTER.ROT>
10

>  <SCORE.INTER.SOLV>
6.81021

>  <SCORE.INTER.VDW>
-14.8713

>  <SCORE.INTER.norm>
-0.845796

>  <SCORE.INTRA>
-4.36278

>  <SCORE.INTRA.DIHEDRAL>
-11.8607

>  <SCORE.INTRA.DIHEDRAL.0>
23.4151

>  <SCORE.INTRA.POLAR>
0

>  <SCORE.INTRA.POLAR.0>
0

>  <SCORE.INTRA.REPUL>
0

>  <SCORE.INTRA.REPUL.0>
0

>  <SCORE.INTRA.SOLV>
-0.00165221

>  <SCORE.INTRA.SOLV.lig_0>
-17.3568

>  <SCORE.INTRA.VDW>
1.5684

>  <SCORE.INTRA.VDW.0>
1.0768

>  <SCORE.INTRA.norm>
-0.189686

>  <SCORE.RESTR>
0

>  <SCORE.RESTR.CAVITY>
0

>  <SCORE.RESTR.norm>
0

>  <SCORE.SYSTEM>
0

>  <SCORE.SYSTEM.CONST>
0

>  <SCORE.SYSTEM.DIHEDRAL>
0

>  <SCORE.SYSTEM.SOLV>
0

>  <SCORE.SYSTEM.norm>
0

>  <SCORE.heavy>
23

>  <SCORE.norm>
-1.03548

>  <RMSD>
6.454

$$$$
1uui_lig
 OpenBabel11021811413D
libRbt.so/2013.1/901 2013/11/27
 23 24  0  0  0  0  0  0  0  0999 V2000
   -8.7632    0.3969   -0.9113 C   0  0  0  0  0  0  0  0  0  0  0  0
   -7.0490   -0.9927   -2.8039 O   0  0  0  0  0  0  0  0  0  0  0  0
   -6.0618   -1.7734    2.7566 O   0  0  0  0  0  0  0  0  0  0  0  0
   -5.8714   -0.4805   -3.4401 C   0  0  0  0  0  0  0  0  0  0  0  0
   -4.9631   -0.9540    3.1634 C   0  0  0  0  0  0  0  0  0  0  0  0
  -10.0400    0.0297   -0.2152 N   0  0  0  0  0  0  0  0  0  0  0  0
   -6.2578    0.1353   -4.7857 C   0  0  0  0  0  0  0  0  0  0  0  0
  -11.2270    0.4436   -1.0116 C   0  0  0  0  0  0  0  0  0  0  0  0
  -10.1070    0.6508    1.1339 C   0  0  0  0  0  0  0  0  0  0  0  0
   -7.1033    1.3931   -4.5625 C   0  0  0  0  0  0  0  0  0  0  0  0
  -11.2697    1.9653   -1.2318 C   0  0  0  0  0  0  0  0  0  0  0  0
  -10.0353    2.1854    1.0561 C   0  0  0  0  0  0  0  0  0  0  0  0
   -7.2974    2.0931   -5.8520 N   0  0  0  0  0  0  0  0  0  0  0  0
  -10.3323    2.6926   -0.3197 N   0  0  0  0  0  0  0  0  0  0  0  0
   -9.9246    3.9948   -0.6643 C   0  0  0  0  0  0  0  0  0  0  0  0
  -10.4174    5.0784    0.0004 N   0  0  0  0  0  0  0  0  0  0  0  0
   -9.1344    4.2112   -1.7544 N   0  0  0  0  0  0  0  0  0  0  0  0
   -6.8057   -1.1901   -1.4082 C   0  0  0  0  0  0  0  0  0  0  0  0
   -7.6175   -0.5310   -0.4450 C   0  0  0  0  0  0  0  0  0  0  0  0
   -7.3688   -0.7268    0.9419 C   0  0  0  0  0  0  0  0  0  0  0  0
   -6.3116   -1.5791    1.3616 C   0  0  0  0  0  0  0  0  0  0  0  0
   -5.5035   -2.2368    0.3974 C   0  0  0  0  0  0  0  0  0  0  0  0
   -5.7500   -2.0413   -0.9870 C   0  0  0  0  0  0  0  0  0  0  0  0
  2  4  1  0  0  0  0
  3  5  1  0  0  0  0
  4  7  1  0  0  0  0
  6  1  1  0  0  0  0
  7 10  1  0  0  0  0
  8  6  1  0  0  0  0
  8 11  1  0  0  0  0
  9  6  1  0  0  0  0
 10 13  1  0  0  0  0
 11 14  1  0  0  0  0
 12  9  1  0  0  0  0
 14 12  1  0  0  0  0
 14 15  1  0  0  0  0
 15 16  1  0  0  0  0
 15 17  1  0  0  0  0
 18  2  1  0  0  0  0
 18 23  2  0  0  0  0
 19  1  1  0  0  0  0
 19 18  1  0  0  0  0
 20 19  2  0  0  0  0
 21  3  1  0  0  0  0
 21 20  1  0  0  0  0
 22 21  2  0  0  0  0
 22 23  1  0  0  0  0
M  END
>  <CHROM.1>
-162.12221766,67.73925830,-155.22973788,171.44273215,51.68751519,106.23950206
-112.35422709,94.48274721,122.15213858,129.30614433,-100.24997843,-8.07744965
0.63147946,-0.89924616,2.56724609,0.77071440,-1.27357373

>  <Name>
1uui_lig

>  <RI>
0

>  <Rbt.Current_Directory>
/home/itssahil/PROJECTS/Mol_Feturizer/New_Systems/rnas/1uui

>  <Rbt.Executable>
rbdock ($Id: //depot/dev/client3/rdock/2013.1/src/exe/rbdock.cxx#4 $)

>  <Rbt.Library>
libRbt.so (2013.1, Build901 2013/11/27)

>  <Rbt.Parameter_File>
/export/apps/rDock/src/rDock_2013.1_src/data/scripts/dock_solv.prm

>  <Rbt.Receptor>
prm/pocket_docking_6.prm

>  <SCORE>
-25.2139

>  <SCORE.INTER>
-19.2689

>  <SCORE.INTER.CONST>
1

>  <SCORE.INTER.POLAR>
-2.54167

>  <SCORE.INTER.ROT>
10

>  <SCORE.INTER.SOLV>
5.24645

>  <SCORE.INTER.VDW>
-16.3891

>  <SCORE.INTER.norm>
-0.837776

>  <SCORE.INTRA>
-5.94503

>  <SCORE.INTRA.DIHEDRAL>
-7.6197

>  <SCORE.INTRA.DIHEDRAL.0>
23.4151

>  <SCORE.INTRA.POLAR>
0

>  <SCORE.INTRA.POLAR.0>
0

>  <SCORE.INTRA.REPUL>
0

>  <SCORE.INTRA.REPUL.0>
0

>  <SCORE.INTRA.SOLV>
-0.0160177

>  <SCORE.INTRA.SOLV.lig_0>
-17.3568

>  <SCORE.INTRA.VDW>
-2.12717

>  <SCORE.INTRA.VDW.0>
1.0768

>  <SCORE.INTRA.norm>
-0.25848

>  <SCORE.RESTR>
0

>  <SCORE.RESTR.CAVITY>
0

>  <SCORE.RESTR.norm>
0

>  <SCORE.SYSTEM>
0

>  <SCORE.SYSTEM.CONST>
0

>  <SCORE.SYSTEM.DIHEDRAL>
0

>  <SCORE.SYSTEM.SOLV>
0

>  <SCORE.SYSTEM.norm>
0

>  <SCORE.heavy>
23

>  <SCORE.norm>
-1.09626

>  <RMSD>
6.456

$$$$
1uui_lig
 OpenBabel11021811413D
libRbt.so/2013.1/901 2013/11/27
 23 24  0  0  0  0  0  0  0  0999 V2000
  -10.7789    0.4342    0.7605 C   0  0  0  0  0  0  0  0  0  0  0  0
  -12.7099    2.3868   -0.1932 O   0  0  0  0  0  0  0  0  0  0  0  0
  -12.5690    1.2907    5.3999 O   0  0  0  0  0  0  0  0  0  0  0  0
  -13.5195    1.4109   -0.8611 C   0  0  0  0  0  0  0  0  0  0  0  0
  -13.2478    0.0595    5.6599 C   0  0  0  0  0  0  0  0  0  0  0  0
   -9.9761    1.4314   -0.0209 N   0  0  0  0  0  0  0  0  0  0  0  0
  -13.5568    1.7311   -2.3562 C   0  0  0  0  0  0  0  0  0  0  0  0
   -9.4058    0.8193   -1.2517 C   0  0  0  0  0  0  0  0  0  0  0  0
   -8.8776    1.9950    0.8073 C   0  0  0  0  0  0  0  0  0  0  0  0
  -12.1628    1.5498   -2.9655 C   0  0  0  0  0  0  0  0  0  0  0  0
   -8.4586   -0.3485   -0.9274 C   0  0  0  0  0  0  0  0  0  0  0  0
   -7.9185    0.8979    1.3001 C   0  0  0  0  0  0  0  0  0  0  0  0
  -12.1865    1.9666   -4.3855 N   0  0  0  0  0  0  0  0  0  0  0  0
   -8.0625   -0.3680    0.5157 N   0  0  0  0  0  0  0  0  0  0  0  0
   -7.5766   -1.5670    1.0694 C   0  0  0  0  0  0  0  0  0  0  0  0
   -7.2380   -1.6390    2.3882 N   0  0  0  0  0  0  0  0  0  0  0  0
   -7.3069   -2.6418    0.2746 N   0  0  0  0  0  0  0  0  0  0  0  0
  -12.6701    2.1130    1.2102 C   0  0  0  0  0  0  0  0  0  0  0  0
  -11.7430    1.1652    1.7234 C   0  0  0  0  0  0  0  0  0  0  0  0
  -11.7102    0.8928    3.1193 C   0  0  0  0  0  0  0  0  0  0  0  0
  -12.6022    1.5671    3.9968 C   0  0  0  0  0  0  0  0  0  0  0  0
  -13.5259    2.5140    3.4815 C   0  0  0  0  0  0  0  0  0  0  0  0
  -13.5603    2.7858    2.0884 C   0  0  0  0  0  0  0  0  0  0  0  0
  2  4  1  0  0  0  0
  3  5  1  0  0  0  0
  4  7  1  0  0  0  0
  6  1  1  0  0  0  0
  7 10  1  0  0  0  0
  8  6  1  0  0  0  0
  8 11  1  0  0  0  0
  9  6  1  0  0  0  0
 10 13  1  0  0  0  0
 11 14  1  0  0  0  0
 12  9  1  0  0  0  0
 14 12  1  0  0  0  0
 14 15  1  0  0  0  0
 15 16  1  0  0  0  0
 15 17  1  0  0  0  0
 18  2  1  0  0  0  0
 18 23  2  0  0  0  0
 19  1  1  0  0  0  0
 19 18  1  0  0  0  0
 20 19  2  0  0  0  0
 21  3  1  0  0  0  0
 21 20  1  0  0  0  0
 22 21  2  0  0  0  0
 22 23  1  0  0  0  0
M  END
>  <CHROM.1>
179.51374022,66.10722982,-160.26105858,-175.46669566,62.49084421,-178.24087768
-4.32311720,-23.62540627,83.74132576,56.20766261,-78.34798538,-10.88701536
0.85643182,0.84682794,-0.58269616,-0.49823059,1.69117533

>  <Name>
1uui_lig

>  <RI>
0

>  <Rbt.Current_Directory>
/home/itssahil/PROJECTS/Mol_Feturizer/New_Systems/rnas/1uui

>  <Rbt.Executable>
rbdock ($Id: //depot/dev/client3/rdock/2013.1/src/exe/rbdock.cxx#4 $)

>  <Rbt.Library>
libRbt.so (2013.1, Build901 2013/11/27)

>  <Rbt.Parameter_File>
/export/apps/rDock/src/rDock_2013.1_src/data/scripts/dock_solv.prm

>  <Rbt.Receptor>
prm/pocket_docking_3.prm

>  <SCORE>
-33.0145

>  <SCORE.INTER>
-24.9637

>  <SCORE.INTER.CONST>
1

>  <SCORE.INTER.POLAR>
-3.79747

>  <SCORE.INTER.ROT>
10

>  <SCORE.INTER.SOLV>
8.45858

>  <SCORE.INTER.VDW>
-17.0704

>  <SCORE.INTER.norm>
-1.08538

>  <SCORE.INTRA>
-8.05075

>  <SCORE.INTRA.DIHEDRAL>
-8.66915

>  <SCORE.INTRA.DIHEDRAL.0>
23.4151

>  <SCORE.INTRA.POLAR>
-0.534701

>  <SCORE.INTRA.POLAR.0>
0

>  <SCORE.INTRA.REPUL>
0

>  <SCORE.INTRA.REPUL.0>
0

>  <SCORE.INTRA.SOLV>
0.401826

>  <SCORE.INTRA.SOLV.lig_0>
-17.3568

>  <SCORE.INTRA.VDW>
-2.09911

>  <SCORE.INTRA.VDW.0>
1.0768

>  <SCORE.INTRA.norm>
-0.350033

>  <SCORE.RESTR>
0

>  <SCORE.RESTR.CAVITY>
0

>  <SCORE.RESTR.norm>
0

>  <SCORE.SYSTEM>
0

>  <SCORE.SYSTEM.CONST>
0

>  <SCORE.SYSTEM.DIHEDRAL>
0

>  <SCORE.SYSTEM.SOLV>
0

>  <SCORE.SYSTEM.norm>
0

>  <SCORE.heavy>
23

>  <SCORE.norm>
-1.43541

>  <RMSD>
6.461

$$$$
1uui_lig
 OpenBabel11021811413D
libRbt.so/2013.1/901 2013/11/27
 23 24  0  0  0  0  0  0  0  0999 V2000
   -9.6310   -0.1399   -0.9639 C   0  0  0  0  0  0  0  0  0  0  0  0
   -7.2783   -1.1716   -2.3246 O   0  0  0  0  0  0  0  0  0  0  0  0
   -6.6388    0.7809    2.9935 O   0  0  0  0  0  0  0  0  0  0  0  0
   -6.5078   -0.3736   -3.2320 C   0  0  0  0  0  0  0  0  0  0  0  0
   -6.5923    2.2097    2.9726 C   0  0  0  0  0  0  0  0  0  0  0  0
  -10.6543    0.4238   -0.0233 N   0  0  0  0  0  0  0  0  0  0  0  0
   -7.2519    0.9350   -3.5024 C   0  0  0  0  0  0  0  0  0  0  0  0
  -12.0194   -0.0688   -0.3530 C   0  0  0  0  0  0  0  0  0  0  0  0
  -10.6428    1.9102   -0.0545 C   0  0  0  0  0  0  0  0  0  0  0  0
   -6.4855    1.7699   -4.5332 C   0  0  0  0  0  0  0  0  0  0  0  0
  -12.4526    0.3428   -1.7703 C   0  0  0  0  0  0  0  0  0  0  0  0
  -10.9461    2.4504   -1.4624 C   0  0  0  0  0  0  0  0  0  0  0  0
   -7.3652    2.0579   -5.6881 N   0  0  0  0  0  0  0  0  0  0  0  0
  -11.5750    1.4136   -2.3386 N   0  0  0  0  0  0  0  0  0  0  0  0
  -11.5458    1.5971   -3.7336 C   0  0  0  0  0  0  0  0  0  0  0  0
  -10.4295    1.2903   -4.4538 N   0  0  0  0  0  0  0  0  0  0  0  0
  -12.5805    2.2096   -4.3769 N   0  0  0  0  0  0  0  0  0  0  0  0
   -7.1211   -0.6847   -0.9888 C   0  0  0  0  0  0  0  0  0  0  0  0
   -8.2428   -0.1699   -0.2833 C   0  0  0  0  0  0  0  0  0  0  0  0
   -8.0807    0.3174    1.0434 C   0  0  0  0  0  0  0  0  0  0  0  0
   -6.8004    0.2888    1.6601 C   0  0  0  0  0  0  0  0  0  0  0  0
   -5.6824   -0.2271    0.9535 C   0  0  0  0  0  0  0  0  0  0  0  0
   -5.8428   -0.7126   -0.3710 C   0  0  0  0  0  0  0  0  0  0  0  0
  2  4  1  0  0  0  0
  3  5  1  0  0  0  0
  4  7  1  0  0  0  0
  6  1  1  0  0  0  0
  7 10  1  0  0  0  0
  8  6  1  0  0  0  0
  8 11  1  0  0  0  0
  9  6  1  0  0  0  0
 10 13  1  0  0  0  0
 11 14  1  0  0  0  0
 12  9  1  0  0  0  0
 14 12  1  0  0  0  0
 14 15  1  0  0  0  0
 15 16  1  0  0  0  0
 15 17  1  0  0  0  0
 18  2  1  0  0  0  0
 18 23  2  0  0  0  0
 19  1  1  0  0  0  0
 19 18  1  0  0  0  0
 20 19  2  0  0  0  0
 21  3  1  0  0  0  0
 21 20  1  0  0  0  0
 22 21  2  0  0  0  0
 22 23  1  0  0  0  0
M  END
>  <CHROM.1>
-77.99843838,-176.74807537,-154.49425931,122.76960276,-57.77716779,-111.28340929
-45.95825876,87.22220476,116.69151546,179.18254312,-78.43243129,-8.83454112
0.75599097,-1.42051519,2.26130618,0.16105573,-1.48063622

>  <Name>
1uui_lig

>  <RI>
0

>  <Rbt.Current_Directory>
/home/itssahil/PROJECTS/Mol_Feturizer/New_Systems/rnas/1uui

>  <Rbt.Executable>
rbdock ($Id: //depot/dev/client3/rdock/2013.1/src/exe/rbdock.cxx#4 $)

>  <Rbt.Library>
libRbt.so (2013.1, Build901 2013/11/27)

>  <Rbt.Parameter_File>
/export/apps/rDock/src/rDock_2013.1_src/data/scripts/dock_solv.prm

>  <Rbt.Receptor>
prm/pocket_docking_6.prm

>  <SCORE>
-28.8852

>  <SCORE.INTER>
-26.1412

>  <SCORE.INTER.CONST>
1

>  <SCORE.INTER.POLAR>
-3.83187

>  <SCORE.INTER.ROT>
10

>  <SCORE.INTER.SOLV>
8.81864

>  <SCORE.INTER.VDW>
-17.8608

>  <SCORE.INTER.norm>
-1.13658

>  <SCORE.INTRA>
-2.74395

>  <SCORE.INTRA.DIHEDRAL>
-2.41776

>  <SCORE.INTRA.DIHEDRAL.0>
23.4151

>  <SCORE.INTRA.POLAR>
0

>  <SCORE.INTRA.POLAR.0>
0

>  <SCORE.INTRA.REPUL>
0

>  <SCORE.INTRA.REPUL.0>
0

>  <SCORE.INTRA.SOLV>
0.847157

>  <SCORE.INTRA.SOLV.lig_0>
-17.3568

>  <SCORE.INTRA.VDW>
-1.95865

>  <SCORE.INTRA.VDW.0>
1.0768

>  <SCORE.INTRA.norm>
-0.119302

>  <SCORE.RESTR>
0

>  <SCORE.RESTR.CAVITY>
0

>  <SCORE.RESTR.norm>
0

>  <SCORE.SYSTEM>
0

>  <SCORE.SYSTEM.CONST>
0

>  <SCORE.SYSTEM.DIHEDRAL>
0

>  <SCORE.SYSTEM.SOLV>
0

>  <SCORE.SYSTEM.norm>
0

>  <SCORE.heavy>
23

>  <SCORE.norm>
-1.25588

>  <RMSD>
6.464

$$$$
1uui_lig
 OpenBabel11021811413D
libRbt.so/2013.1/901 2013/11/27
 23 24  0  0  0  0  0  0  0  0999 V2000
  -10.5279    0.3143    0.7018 C   0  0  0  0  0  0  0  0  0  0  0  0
  -13.2608   -0.5751    0.2644 O   0  0  0  0  0  0  0  0  0  0  0  0
  -12.3134    3.1549    4.4707 O   0  0  0  0  0  0  0  0  0  0  0  0
  -13.7105    0.1096   -0.9116 C   0  0  0  0  0  0  0  0  0  0  0  0
  -12.2871    4.4816    3.9385 C   0  0  0  0  0  0  0  0  0  0  0  0
   -9.6704    1.4638    0.2625 N   0  0  0  0  0  0  0  0  0  0  0  0
  -13.9711   -0.9143   -2.0174 C   0  0  0  0  0  0  0  0  0  0  0  0
   -8.8796    1.1148   -0.9489 C   0  0  0  0  0  0  0  0  0  0  0  0
   -8.7498    1.8861    1.3509 C   0  0  0  0  0  0  0  0  0  0  0  0
  -14.3684   -0.1976   -3.3118 C   0  0  0  0  0  0  0  0  0  0  0  0
   -7.9302   -0.0684   -0.6948 C   0  0  0  0  0  0  0  0  0  0  0  0
   -7.8192    0.7401    1.7832 C   0  0  0  0  0  0  0  0  0  0  0  0
  -15.7991    0.1761   -3.2503 N   0  0  0  0  0  0  0  0  0  0  0  0
   -7.7654   -0.3546    0.7649 N   0  0  0  0  0  0  0  0  0  0  0  0
   -7.3051   -1.6247    1.1592 C   0  0  0  0  0  0  0  0  0  0  0  0
   -7.8515   -2.7581    0.6342 N   0  0  0  0  0  0  0  0  0  0  0  0
   -6.3993   -1.7537    2.1704 N   0  0  0  0  0  0  0  0  0  0  0  0
  -13.0212    0.3637    1.3167 C   0  0  0  0  0  0  0  0  0  0  0  0
  -11.7010    0.8270    1.5689 C   0  0  0  0  0  0  0  0  0  0  0  0
  -11.4670    1.7573    2.6195 C   0  0  0  0  0  0  0  0  0  0  0  0
  -12.5509    2.2210    3.4136 C   0  0  0  0  0  0  0  0  0  0  0  0
  -13.8682    1.7574    3.1584 C   0  0  0  0  0  0  0  0  0  0  0  0
  -14.1028    0.8282    2.1109 C   0  0  0  0  0  0  0  0  0  0  0  0
  2  4  1  0  0  0  0
  3  5  1  0  0  0  0
  4  7  1  0  0  0  0
  6  1  1  0  0  0  0
  7 10  1  0  0  0  0
  8  6  1  0  0  0  0
  8 11  1  0  0  0  0
  9  6  1  0  0  0  0
 10 13  1  0  0  0  0
 11 14  1  0  0  0  0
 12  9  1  0  0  0  0
 14 12  1  0  0  0  0
 14 15  1  0  0  0  0
 15 16  1  0  0  0  0
 15 17  1  0  0  0  0
 18  2  1  0  0  0  0
 18 23  2  0  0  0  0
 19  1  1  0  0  0  0
 19 18  1  0  0  0  0
 20 19  2  0  0  0  0
 21  3  1  0  0  0  0
 21 20  1  0  0  0  0
 22 21  2  0  0  0  0
 22 23  1  0  0  0  0
M  END
>  <CHROM.1>
-179.52235709,-176.44991754,-158.22789492,-80.35212266,56.66341026,-47.67006058
148.69104014,140.24605331,-97.76700550,133.20015091,83.96315692,-11.08776119
0.53689425,0.84818049,-0.10069106,0.27973327,-2.15708648

>  <Name>
1uui_lig

>  <RI>
0

>  <Rbt.Current_Directory>
/home/itssahil/PROJECTS/Mol_Feturizer/New_Systems/rnas/1uui

>  <Rbt.Executable>
rbdock ($Id: //depot/dev/client3/rdock/2013.1/src/exe/rbdock.cxx#4 $)

>  <Rbt.Library>
libRbt.so (2013.1, Build901 2013/11/27)

>  <Rbt.Parameter_File>
/export/apps/rDock/src/rDock_2013.1_src/data/scripts/dock_solv.prm

>  <Rbt.Receptor>
prm/pocket_docking_6.prm

>  <SCORE>
-26.7377

>  <SCORE.INTER>
-20.9173

>  <SCORE.INTER.CONST>
1

>  <SCORE.INTER.POLAR>
-3.4614

>  <SCORE.INTER.ROT>
10

>  <SCORE.INTER.SOLV>
7.66553

>  <SCORE.INTER.VDW>
-15.2287

>  <SCORE.INTER.norm>
-0.90945

>  <SCORE.INTRA>
-5.82036

>  <SCORE.INTRA.DIHEDRAL>
-7.0811

>  <SCORE.INTRA.DIHEDRAL.0>
23.4151

>  <SCORE.INTRA.POLAR>
0

>  <SCORE.INTRA.POLAR.0>
0

>  <SCORE.INTRA.REPUL>
0

>  <SCORE.INTRA.REPUL.0>
0

>  <SCORE.INTRA.SOLV>
0.0399893

>  <SCORE.INTRA.SOLV.lig_0>
-17.3568

>  <SCORE.INTRA.VDW>
-2.2998

>  <SCORE.INTRA.VDW.0>
1.0768

>  <SCORE.INTRA.norm>
-0.253059

>  <SCORE.RESTR>
0

>  <SCORE.RESTR.CAVITY>
0

>  <SCORE.RESTR.norm>
0

>  <SCORE.SYSTEM>
0

>  <SCORE.SYSTEM.CONST>
0

>  <SCORE.SYSTEM.DIHEDRAL>
0

>  <SCORE.SYSTEM.SOLV>
0

>  <SCORE.SYSTEM.norm>
0

>  <SCORE.heavy>
23

>  <SCORE.norm>
-1.16251

>  <RMSD>
6.469

$$$$
1uui_lig
 OpenBabel11021811413D
libRbt.so/2013.1/901 2013/11/27
 23 24  0  0  0  0  0  0  0  0999 V2000
   -9.2399    0.8223    0.7618 C   0  0  0  0  0  0  0  0  0  0  0  0
  -11.3303    2.3837   -0.5202 O   0  0  0  0  0  0  0  0  0  0  0  0
  -12.8889   -1.4217    3.4287 O   0  0  0  0  0  0  0  0  0  0  0  0
  -11.2730    1.7553   -1.8070 C   0  0  0  0  0  0  0  0  0  0  0  0
  -13.2547   -0.7416    4.6318 C   0  0  0  0  0  0  0  0  0  0  0  0
   -8.7858   -0.3053   -0.1167 N   0  0  0  0  0  0  0  0  0  0  0  0
  -11.2510    2.8350   -2.8900 C   0  0  0  0  0  0  0  0  0  0  0  0
   -8.3595   -1.4804    0.6909 C   0  0  0  0  0  0  0  0  0  0  0  0
   -7.6667    0.1241   -0.9963 C   0  0  0  0  0  0  0  0  0  0  0  0
  -12.4513    2.6623   -3.8261 C   0  0  0  0  0  0  0  0  0  0  0  0
   -7.1788   -1.1436    1.6174 C   0  0  0  0  0  0  0  0  0  0  0  0
   -6.4552    0.6044   -0.1791 C   0  0  0  0  0  0  0  0  0  0  0  0
  -12.2251    1.4966   -4.7095 N   0  0  0  0  0  0  0  0  0  0  0  0
   -6.5206    0.1476    1.2440 N   0  0  0  0  0  0  0  0  0  0  0  0
   -5.7371    0.8123    2.2056 C   0  0  0  0  0  0  0  0  0  0  0  0
   -4.3769    0.8211    2.1114 N   0  0  0  0  0  0  0  0  0  0  0  0
   -6.3098    1.3460    3.3221 N   0  0  0  0  0  0  0  0  0  0  0  0
  -11.7186    1.4310    0.4736 C   0  0  0  0  0  0  0  0  0  0  0  0
  -10.7318    0.6438    1.1275 C   0  0  0  0  0  0  0  0  0  0  0  0
  -11.1231   -0.3056    2.1121 C   0  0  0  0  0  0  0  0  0  0  0  0
  -12.4970   -0.4653    2.4398 C   0  0  0  0  0  0  0  0  0  0  0  0
  -13.4799    0.3232    1.7860 C   0  0  0  0  0  0  0  0  0  0  0  0
  -13.0906    1.2702    0.8025 C   0  0  0  0  0  0  0  0  0  0  0  0
  2  4  1  0  0  0  0
  3  5  1  0  0  0  0
  4  7  1  0  0  0  0
  6  1  1  0  0  0  0
  7 10  1  0  0  0  0
  8  6  1  0  0  0  0
  8 11  1  0  0  0  0
  9  6  1  0  0  0  0
 10 13  1  0  0  0  0
 11 14  1  0  0  0  0
 12  9  1  0  0  0  0
 14 12  1  0  0  0  0
 14 15  1  0  0  0  0
 15 16  1  0  0  0  0
 15 17  1  0  0  0  0
 18  2  1  0  0  0  0
 18 23  2  0  0  0  0
 19  1  1  0  0  0  0
 19 18  1  0  0  0  0
 20 19  2  0  0  0  0
 21  3  1  0  0  0  0
 21 20  1  0  0  0  0
 22 21  2  0  0  0  0
 22 23  1  0  0  0  0
M  END
>  <CHROM.1>
164.14459548,-120.81816927,-85.56143367,-73.93187846,33.31535337,106.59703173
-5.85303970,155.82742324,87.96543804,-103.20894880,105.72035473,-9.86595662
0.59781437,0.56438870,-0.48776431,-0.00999196,-1.20696708

>  <Name>
1uui_lig

>  <RI>
0

>  <Rbt.Current_Directory>
/home/itssahil/PROJECTS/Mol_Feturizer/New_Systems/rnas/1uui

>  <Rbt.Executable>
rbdock ($Id: //depot/dev/client3/rdock/2013.1/src/exe/rbdock.cxx#4 $)

>  <Rbt.Library>
libRbt.so (2013.1, Build901 2013/11/27)

>  <Rbt.Parameter_File>
/export/apps/rDock/src/rDock_2013.1_src/data/scripts/dock_solv.prm

>  <Rbt.Receptor>
prm/pocket_docking_5.prm

>  <SCORE>
-17.9705

>  <SCORE.INTER>
-15.1657

>  <SCORE.INTER.CONST>
1

>  <SCORE.INTER.POLAR>
-2.02818

>  <SCORE.INTER.ROT>
10

>  <SCORE.INTER.SOLV>
8.01444

>  <SCORE.INTER.VDW>
-16.288

>  <SCORE.INTER.norm>
-0.659378

>  <SCORE.INTRA>
-2.8048

>  <SCORE.INTRA.DIHEDRAL>
0.546699

>  <SCORE.INTRA.DIHEDRAL.0>
23.4151

>  <SCORE.INTRA.POLAR>
0

>  <SCORE.INTRA.POLAR.0>
0

>  <SCORE.INTRA.REPUL>
0

>  <SCORE.INTRA.REPUL.0>
0

>  <SCORE.INTRA.SOLV>
0.147395

>  <SCORE.INTRA.SOLV.lig_0>
-17.3568

>  <SCORE.INTRA.VDW>
-3.15185

>  <SCORE.INTRA.VDW.0>
1.0768

>  <SCORE.INTRA.norm>
-0.121948

>  <SCORE.RESTR>
0

>  <SCORE.RESTR.CAVITY>
0

>  <SCORE.RESTR.norm>
0

>  <SCORE.SYSTEM>
0

>  <SCORE.SYSTEM.CONST>
0

>  <SCORE.SYSTEM.DIHEDRAL>
0

>  <SCORE.SYSTEM.SOLV>
0

>  <SCORE.SYSTEM.norm>
0

>  <SCORE.heavy>
23

>  <SCORE.norm>
-0.781325

>  <RMSD>
6.476

$$$$
1uui_lig
 OpenBabel11021811413D
libRbt.so/2013.1/901 2013/11/27
 23 24  0  0  0  0  0  0  0  0999 V2000
   -9.0219    0.1967   -1.1852 C   0  0  0  0  0  0  0  0  0  0  0  0
   -7.1361   -1.6948   -2.3330 O   0  0  0  0  0  0  0  0  0  0  0  0
   -6.5106   -0.3101    3.1620 O   0  0  0  0  0  0  0  0  0  0  0  0
   -5.8793   -1.5748   -3.0113 C   0  0  0  0  0  0  0  0  0  0  0  0
   -5.6070    0.7922    3.2741 C   0  0  0  0  0  0  0  0  0  0  0  0
  -10.3302    0.0458   -0.4675 N   0  0  0  0  0  0  0  0  0  0  0  0
   -5.5585   -0.0927   -3.2107 C   0  0  0  0  0  0  0  0  0  0  0  0
  -11.4565   -0.1141   -1.4269 C   0  0  0  0  0  0  0  0  0  0  0  0
  -10.5910    1.2150    0.4130 C   0  0  0  0  0  0  0  0  0  0  0  0
   -6.5834    0.5423   -4.1560 C   0  0  0  0  0  0  0  0  0  0  0  0
  -11.6020    1.1065   -2.3515 C   0  0  0  0  0  0  0  0  0  0  0  0
  -10.6393    2.5280   -0.3871 C   0  0  0  0  0  0  0  0  0  0  0  0
   -6.4331   -0.0381   -5.5092 N   0  0  0  0  0  0  0  0  0  0  0  0
  -10.8300    2.2870   -1.8513 N   0  0  0  0  0  0  0  0  0  0  0  0
  -10.4979    3.3128   -2.7556 C   0  0  0  0  0  0  0  0  0  0  0  0
   -9.2332    3.4205   -3.2537 N   0  0  0  0  0  0  0  0  0  0  0  0
  -11.3930    4.2987   -3.0493 N   0  0  0  0  0  0  0  0  0  0  0  0
   -6.9835   -1.3488   -0.9534 C   0  0  0  0  0  0  0  0  0  0  0  0
   -7.8812   -0.4274   -0.3482 C   0  0  0  0  0  0  0  0  0  0  0  0
   -7.7227   -0.0829    1.0229 C   0  0  0  0  0  0  0  0  0  0  0  0
   -6.6696   -0.6591    1.7840 C   0  0  0  0  0  0  0  0  0  0  0  0
   -5.7755   -1.5798    1.1771 C   0  0  0  0  0  0  0  0  0  0  0  0
   -5.9320   -1.9235   -0.1915 C   0  0  0  0  0  0  0  0  0  0  0  0
  2  4  1  0  0  0  0
  3  5  1  0  0  0  0
  4  7  1  0  0  0  0
  6  1  1  0  0  0  0
  7 10  1  0  0  0  0
  8  6  1  0  0  0  0
  8 11  1  0  0  0  0
  9  6  1  0  0  0  0
 10 13  1  0  0  0  0
 11 14  1  0  0  0  0
 12  9  1  0  0  0  0
 14 12  1  0  0  0  0
 14 15  1  0  0  0  0
 15 16  1  0  0  0  0
 15 17  1  0  0  0  0
 18  2  1  0  0  0  0
 18 23  2  0  0  0  0
 19  1  1  0  0  0  0
 19 18  1  0  0  0  0
 20 19  2  0  0  0  0
 21  3  1  0  0  0  0
 21 20  1  0  0  0  0
 22 21  2  0  0  0  0
 22 23  1  0  0  0  0
M  END
>  <CHROM.1>
-74.11935835,-65.26936983,-147.64101131,-66.47837027,169.47824164,-103.22147756
137.90702441,80.19798083,130.61502806,129.51111399,-92.18040653,-8.28966787
0.47847134,-1.18287273,2.53609548,0.60111298,-1.47588942

>  <Name>
1uui_lig

>  <RI>
0

>  <Rbt.Current_Directory>
/home/itssahil/PROJECTS/Mol_Feturizer/New_Systems/rnas/1uui

>  <Rbt.Executable>
rbdock ($Id: //depot/dev/client3/rdock/2013.1/src/exe/rbdock.cxx#4 $)

>  <Rbt.Library>
libRbt.so (2013.1, Build901 2013/11/27)

>  <Rbt.Parameter_File>
/export/apps/rDock/src/rDock_2013.1_src/data/scripts/dock_solv.prm

>  <Rbt.Receptor>
prm/pocket_docking_7.prm

>  <SCORE>
-36.687

>  <SCORE.INTER>
-31.2125

>  <SCORE.INTER.CONST>
1

>  <SCORE.INTER.POLAR>
-5.12964

>  <SCORE.INTER.ROT>
10

>  <SCORE.INTER.SOLV>
8.03526

>  <SCORE.INTER.VDW>
-16.6546

>  <SCORE.INTER.norm>
-1.35707

>  <SCORE.INTRA>
-5.47451

>  <SCORE.INTRA.DIHEDRAL>
-8.24966

>  <SCORE.INTRA.DIHEDRAL.0>
23.4151

>  <SCORE.INTRA.POLAR>
0

>  <SCORE.INTRA.POLAR.0>
0

>  <SCORE.INTRA.REPUL>
0

>  <SCORE.INTRA.REPUL.0>
0

>  <SCORE.INTRA.SOLV>
0.290814

>  <SCORE.INTRA.SOLV.lig_0>
-17.3568

>  <SCORE.INTRA.VDW>
-1.49509

>  <SCORE.INTRA.VDW.0>
1.0768

>  <SCORE.INTRA.norm>
-0.238022

>  <SCORE.RESTR>
0

>  <SCORE.RESTR.CAVITY>
0

>  <SCORE.RESTR.norm>
0

>  <SCORE.SYSTEM>
0

>  <SCORE.SYSTEM.CONST>
0

>  <SCORE.SYSTEM.DIHEDRAL>
0

>  <SCORE.SYSTEM.SOLV>
0

>  <SCORE.SYSTEM.norm>
0

>  <SCORE.heavy>
23

>  <SCORE.norm>
-1.59509

>  <RMSD>
6.488

$$$$
1uui_lig
 OpenBabel11021811413D
libRbt.so/2013.1/901 2013/11/27
 23 24  0  0  0  0  0  0  0  0999 V2000
  -10.5898    0.2316    1.3030 C   0  0  0  0  0  0  0  0  0  0  0  0
  -13.3354   -0.4881    0.6743 O   0  0  0  0  0  0  0  0  0  0  0  0
  -12.3872    2.4962    5.4386 O   0  0  0  0  0  0  0  0  0  0  0  0
  -13.2276    0.3637   -0.4733 C   0  0  0  0  0  0  0  0  0  0  0  0
  -12.4280    1.6172    6.5654 C   0  0  0  0  0  0  0  0  0  0  0  0
   -9.7960    1.4436    0.9152 N   0  0  0  0  0  0  0  0  0  0  0  0
  -13.5407   -0.4493   -1.7304 C   0  0  0  0  0  0  0  0  0  0  0  0
   -9.1023    1.2407   -0.3856 C   0  0  0  0  0  0  0  0  0  0  0  0
   -8.7965    1.7814    1.9627 C   0  0  0  0  0  0  0  0  0  0  0  0
  -13.3504    0.4203   -2.9772 C   0  0  0  0  0  0  0  0  0  0  0  0
   -8.1107    0.0660   -0.3315 C   0  0  0  0  0  0  0  0  0  0  0  0
   -7.8095    0.6254    2.1989 C   0  0  0  0  0  0  0  0  0  0  0  0
  -14.4300    1.4304   -3.0443 N   0  0  0  0  0  0  0  0  0  0  0  0
   -7.8186   -0.3599    1.0731 N   0  0  0  0  0  0  0  0  0  0  0  0
   -7.3009   -1.6492    1.2970 C   0  0  0  0  0  0  0  0  0  0  0  0
   -6.1855   -1.8297    2.0600 N   0  0  0  0  0  0  0  0  0  0  0  0
   -7.8210   -2.7304    0.6490 N   0  0  0  0  0  0  0  0  0  0  0  0
  -13.0954    0.2639    1.8671 C   0  0  0  0  0  0  0  0  0  0  0  0
  -11.7692    0.6384    2.2166 C   0  0  0  0  0  0  0  0  0  0  0  0
  -11.5350    1.3825    3.4063 C   0  0  0  0  0  0  0  0  0  0  0  0
  -12.6248    1.7496    4.2418 C   0  0  0  0  0  0  0  0  0  0  0  0
  -13.9480    1.3752    3.8895 C   0  0  0  0  0  0  0  0  0  0  0  0
  -14.1829    0.6317    2.7030 C   0  0  0  0  0  0  0  0  0  0  0  0
  2  4  1  0  0  0  0
  3  5  1  0  0  0  0
  4  7  1  0  0  0  0
  6  1  1  0  0  0  0
  7 10  1  0  0  0  0
  8  6  1  0  0  0  0
  8 11  1  0  0  0  0
  9  6  1  0  0  0  0
 10 13  1  0  0  0  0
 11 14  1  0  0  0  0
 12  9  1  0  0  0  0
 14 12  1  0  0  0  0
 14 15  1  0  0  0  0
 15 16  1  0  0  0  0
 15 17  1  0  0  0  0
 18  2  1  0  0  0  0
 18 23  2  0  0  0  0
 19  1  1  0  0  0  0
 19 18  1  0  0  0  0
 20 19  2  0  0  0  0
 21  3  1  0  0  0  0
 21 20  1  0  0  0  0
 22 21  2  0  0  0  0
 22 23  1  0  0  0  0
M  END
>  <CHROM.1>
-177.83920730,-176.64986413,-153.50197590,-70.87448722,-33.04947809,129.22490644
114.62257226,146.07359878,-75.68393862,125.41270501,-101.27864524,-10.98014800
0.42862626,1.40655887,0.07947276,0.28247857,-1.79132470

>  <Name>
1uui_lig

>  <RI>
0

>  <Rbt.Current_Directory>
/home/itssahil/PROJECTS/Mol_Feturizer/New_Systems/rnas/1uui

>  <Rbt.Executable>
rbdock ($Id: //depot/dev/client3/rdock/2013.1/src/exe/rbdock.cxx#4 $)

>  <Rbt.Library>
libRbt.so (2013.1, Build901 2013/11/27)

>  <Rbt.Parameter_File>
/export/apps/rDock/src/rDock_2013.1_src/data/scripts/dock_solv.prm

>  <Rbt.Receptor>
prm/pocket_docking_4.prm

>  <SCORE>
-28.1343

>  <SCORE.INTER>
-22.5613

>  <SCORE.INTER.CONST>
1

>  <SCORE.INTER.POLAR>
-3.47789

>  <SCORE.INTER.ROT>
10

>  <SCORE.INTER.SOLV>
7.0765

>  <SCORE.INTER.VDW>
-16.0734

>  <SCORE.INTER.norm>
-0.980924

>  <SCORE.INTRA>
-5.57301

>  <SCORE.INTRA.DIHEDRAL>
-6.651

>  <SCORE.INTRA.DIHEDRAL.0>
23.4151

>  <SCORE.INTRA.POLAR>
0

>  <SCORE.INTRA.POLAR.0>
0

>  <SCORE.INTRA.REPUL>
0

>  <SCORE.INTRA.REPUL.0>
0

>  <SCORE.INTRA.SOLV>
0.0719723

>  <SCORE.INTRA.SOLV.lig_0>
-17.3568

>  <SCORE.INTRA.VDW>
-2.2835

>  <SCORE.INTRA.VDW.0>
1.0768

>  <SCORE.INTRA.norm>
-0.242305

>  <SCORE.RESTR>
0

>  <SCORE.RESTR.CAVITY>
0

>  <SCORE.RESTR.norm>
0

>  <SCORE.SYSTEM>
0

>  <SCORE.SYSTEM.CONST>
0

>  <SCORE.SYSTEM.DIHEDRAL>
0

>  <SCORE.SYSTEM.SOLV>
0

>  <SCORE.SYSTEM.norm>
0

>  <SCORE.heavy>
23

>  <SCORE.norm>
-1.22323

>  <RMSD>
6.492

$$$$
1uui_lig
 OpenBabel11021811413D
libRbt.so/2013.1/901 2013/11/27
 23 24  0  0  0  0  0  0  0  0999 V2000
  -10.0134   -0.2440    1.3019 C   0  0  0  0  0  0  0  0  0  0  0  0
  -11.6219    1.7532   -0.0676 O   0  0  0  0  0  0  0  0  0  0  0  0
  -14.1829   -1.5011    3.8509 O   0  0  0  0  0  0  0  0  0  0  0  0
  -11.9785    1.3050   -1.3813 C   0  0  0  0  0  0  0  0  0  0  0  0
  -13.9574   -0.9526    5.1518 C   0  0  0  0  0  0  0  0  0  0  0  0
   -9.3525    1.0888    1.1111 N   0  0  0  0  0  0  0  0  0  0  0  0
  -11.1949    2.1146   -2.4155 C   0  0  0  0  0  0  0  0  0  0  0  0
   -8.6023    1.1400   -0.1731 C   0  0  0  0  0  0  0  0  0  0  0  0
   -8.4294    1.3899    2.2370 C   0  0  0  0  0  0  0  0  0  0  0  0
  -11.7014    1.7934   -3.8253 C   0  0  0  0  0  0  0  0  0  0  0  0
   -7.4848    0.0845   -0.2288 C   0  0  0  0  0  0  0  0  0  0  0  0
   -7.3240    0.3277    2.3638 C   0  0  0  0  0  0  0  0  0  0  0  0
  -12.9264    2.5771   -4.1005 N   0  0  0  0  0  0  0  0  0  0  0  0
   -7.1872   -0.4921    1.1198 N   0  0  0  0  0  0  0  0  0  0  0  0
   -6.5321   -1.7353    1.1964 C   0  0  0  0  0  0  0  0  0  0  0  0
   -5.5299   -1.9408    2.0977 N   0  0  0  0  0  0  0  0  0  0  0  0
   -6.7908   -2.7157    0.2846 N   0  0  0  0  0  0  0  0  0  0  0  0
  -12.2614    0.9381    0.9187 C   0  0  0  0  0  0  0  0  0  0  0  0
  -11.5158   -0.0526    1.6143 C   0  0  0  0  0  0  0  0  0  0  0  0
  -12.1571   -0.8639    2.5911 C   0  0  0  0  0  0  0  0  0  0  0  0
  -13.5392   -0.6832    2.8697 C   0  0  0  0  0  0  0  0  0  0  0  0
  -14.2807    0.3078    2.1744 C   0  0  0  0  0  0  0  0  0  0  0  0
  -13.6420    1.1173    1.1985 C   0  0  0  0  0  0  0  0  0  0  0  0
  2  4  1  0  0  0  0
  3  5  1  0  0  0  0
  4  7  1  0  0  0  0
  6  1  1  0  0  0  0
  7 10  1  0  0  0  0
  8  6  1  0  0  0  0
  8 11  1  0  0  0  0
  9  6  1  0  0  0  0
 10 13  1  0  0  0  0
 11 14  1  0  0  0  0
 12  9  1  0  0  0  0
 14 12  1  0  0  0  0
 14 15  1  0  0  0  0
 15 16  1  0  0  0  0
 15 17  1  0  0  0  0
 18  2  1  0  0  0  0
 18 23  2  0  0  0  0
 19  1  1  0  0  0  0
 19 18  1  0  0  0  0
 20 19  2  0  0  0  0
 21  3  1  0  0  0  0
 21 20  1  0  0  0  0
 22 21  2  0  0  0  0
 22 23  1  0  0  0  0
M  END
>  <CHROM.1>
-175.37179072,-172.05301321,-127.69948016,81.42844294,72.03174581,137.31402703
96.56818449,-3.62466828,103.48756247,40.32609851,83.46381107,-10.48912374
0.20581068,0.81988110,0.20509221,-0.19285610,2.02767491

>  <Name>
1uui_lig

>  <RI>
0

>  <Rbt.Current_Directory>
/home/itssahil/PROJECTS/Mol_Feturizer/New_Systems/rnas/1uui

>  <Rbt.Executable>
rbdock ($Id: //depot/dev/client3/rdock/2013.1/src/exe/rbdock.cxx#4 $)

>  <Rbt.Library>
libRbt.so (2013.1, Build901 2013/11/27)

>  <Rbt.Parameter_File>
/export/apps/rDock/src/rDock_2013.1_src/data/scripts/dock_solv.prm

>  <Rbt.Receptor>
prm/pocket_docking_4.prm

>  <SCORE>
-34.7264

>  <SCORE.INTER>
-28.7708

>  <SCORE.INTER.CONST>
1

>  <SCORE.INTER.POLAR>
-4.82615

>  <SCORE.INTER.ROT>
10

>  <SCORE.INTER.SOLV>
7.53536

>  <SCORE.INTER.VDW>
-15.8718

>  <SCORE.INTER.norm>
-1.25091

>  <SCORE.INTRA>
-5.95555

>  <SCORE.INTRA.DIHEDRAL>
-4.25215

>  <SCORE.INTRA.DIHEDRAL.0>
23.4151

>  <SCORE.INTRA.POLAR>
-0.472896

>  <SCORE.INTRA.POLAR.0>
0

>  <SCORE.INTRA.REPUL>
0

>  <SCORE.INTRA.REPUL.0>
0

>  <SCORE.INTRA.SOLV>
0.380308

>  <SCORE.INTRA.SOLV.lig_0>
-17.3568

>  <SCORE.INTRA.VDW>
-2.41178

>  <SCORE.INTRA.VDW.0>
1.0768

>  <SCORE.INTRA.norm>
-0.258937

>  <SCORE.RESTR>
0

>  <SCORE.RESTR.CAVITY>
0

>  <SCORE.RESTR.norm>
0

>  <SCORE.SYSTEM>
0

>  <SCORE.SYSTEM.CONST>
0

>  <SCORE.SYSTEM.DIHEDRAL>
0

>  <SCORE.SYSTEM.SOLV>
0

>  <SCORE.SYSTEM.norm>
0

>  <SCORE.heavy>
23

>  <SCORE.norm>
-1.50984

>  <RMSD>
6.497

$$$$
1uui_lig
 OpenBabel11021811413D
libRbt.so/2013.1/901 2013/11/27
 23 24  0  0  0  0  0  0  0  0999 V2000
  -10.2069    0.3429    1.3593 C   0  0  0  0  0  0  0  0  0  0  0  0
  -12.1716    1.8255   -0.1877 O   0  0  0  0  0  0  0  0  0  0  0  0
  -12.7992    1.6793    5.4770 O   0  0  0  0  0  0  0  0  0  0  0  0
  -12.9843    0.8127   -0.7941 C   0  0  0  0  0  0  0  0  0  0  0  0
  -13.3859    0.4324    5.8579 C   0  0  0  0  0  0  0  0  0  0  0  0
   -9.7345    1.1141    0.1628 N   0  0  0  0  0  0  0  0  0  0  0  0
  -12.7716    0.8415   -2.3085 C   0  0  0  0  0  0  0  0  0  0  0  0
   -9.4553    0.2100   -0.9859 C   0  0  0  0  0  0  0  0  0  0  0  0
   -8.5132    1.8985    0.4846 C   0  0  0  0  0  0  0  0  0  0  0  0
  -13.1082    2.2313   -2.8582 C   0  0  0  0  0  0  0  0  0  0  0  0
   -8.3524   -0.8112   -0.6591 C   0  0  0  0  0  0  0  0  0  0  0  0
   -7.3610    0.9901    0.9468 C   0  0  0  0  0  0  0  0  0  0  0  0
  -12.6858    2.3180   -4.2740 N   0  0  0  0  0  0  0  0  0  0  0  0
   -7.5894   -0.4407    0.5738 N   0  0  0  0  0  0  0  0  0  0  0  0
   -6.8660   -1.4408    1.2498 C   0  0  0  0  0  0  0  0  0  0  0  0
   -6.7434   -1.4153    2.6075 N   0  0  0  0  0  0  0  0  0  0  0  0
   -6.1608   -2.3793    0.5560 N   0  0  0  0  0  0  0  0  0  0  0  0
  -12.3249    1.7906    1.2341 C   0  0  0  0  0  0  0  0  0  0  0  0
  -11.3892    1.0777    2.0325 C   0  0  0  0  0  0  0  0  0  0  0  0
  -11.5483    1.0421    3.4458 C   0  0  0  0  0  0  0  0  0  0  0  0
  -12.6398    1.7178    4.0560 C   0  0  0  0  0  0  0  0  0  0  0  0
  -13.5717    2.4299    3.2561 C   0  0  0  0  0  0  0  0  0  0  0  0
  -13.4146    2.4652    1.8455 C   0  0  0  0  0  0  0  0  0  0  0  0
  2  4  1  0  0  0  0
  3  5  1  0  0  0  0
  4  7  1  0  0  0  0
  6  1  1  0  0  0  0
  7 10  1  0  0  0  0
  8  6  1  0  0  0  0
  8 11  1  0  0  0  0
  9  6  1  0  0  0  0
 10 13  1  0  0  0  0
 11 14  1  0  0  0  0
 12  9  1  0  0  0  0
 14 12  1  0  0  0  0
 14 15  1  0  0  0  0
 15 16  1  0  0  0  0
 15 17  1  0  0  0  0
 18  2  1  0  0  0  0
 18 23  2  0  0  0  0
 19  1  1  0  0  0  0
 19 18  1  0  0  0  0
 20 19  2  0  0  0  0
 21  3  1  0  0  0  0
 21 20  1  0  0  0  0
 22 21  2  0  0  0  0
 22 23  1  0  0  0  0
M  END
>  <CHROM.1>
-178.30029099,-57.56192343,-137.33523369,170.55064836,-55.07486738,-146.02073822
-19.17219500,75.52345575,96.00786664,34.75364928,-79.28917365,-10.64466814
0.78939378,0.94712036,-0.16271818,-0.43852967,1.64916917

>  <Name>
1uui_lig

>  <RI>
0

>  <Rbt.Current_Directory>
/home/itssahil/PROJECTS/Mol_Feturizer/New_Systems/rnas/1uui

>  <Rbt.Executable>
rbdock ($Id: //depot/dev/client3/rdock/2013.1/src/exe/rbdock.cxx#4 $)

>  <Rbt.Library>
libRbt.so (2013.1, Build901 2013/11/27)

>  <Rbt.Parameter_File>
/export/apps/rDock/src/rDock_2013.1_src/data/scripts/dock_solv.prm

>  <Rbt.Receptor>
prm/pocket_docking_4.prm

>  <SCORE>
-28.6035

>  <SCORE.INTER>
-20.7197

>  <SCORE.INTER.CONST>
1

>  <SCORE.INTER.POLAR>
-3.33854

>  <SCORE.INTER.ROT>
10

>  <SCORE.INTER.SOLV>
6.99306

>  <SCORE.INTER.VDW>
-15.2823

>  <SCORE.INTER.norm>
-0.900857

>  <SCORE.INTRA>
-7.88377

>  <SCORE.INTRA.DIHEDRAL>
-6.35824

>  <SCORE.INTRA.DIHEDRAL.0>
23.4151

>  <SCORE.INTRA.POLAR>
-0.769746

>  <SCORE.INTRA.POLAR.0>
0

>  <SCORE.INTRA.REPUL>
0

>  <SCORE.INTRA.REPUL.0>
0

>  <SCORE.INTRA.SOLV>
0.392238

>  <SCORE.INTRA.SOLV.lig_0>
-17.3568

>  <SCORE.INTRA.VDW>
-2.28363

>  <SCORE.INTRA.VDW.0>
1.0768

>  <SCORE.INTRA.norm>
-0.342772

>  <SCORE.RESTR>
0

>  <SCORE.RESTR.CAVITY>
0

>  <SCORE.RESTR.norm>
0

>  <SCORE.SYSTEM>
0

>  <SCORE.SYSTEM.CONST>
0

>  <SCORE.SYSTEM.DIHEDRAL>
0

>  <SCORE.SYSTEM.SOLV>
0

>  <SCORE.SYSTEM.norm>
0

>  <SCORE.heavy>
23

>  <SCORE.norm>
-1.24363

>  <RMSD>
6.501

$$$$
1uui_lig
 OpenBabel11021811413D
libRbt.so/2013.1/901 2013/11/27
 23 24  0  0  0  0  0  0  0  0999 V2000
   -7.3386   -0.3633    0.0172 C   0  0  0  0  0  0  0  0  0  0  0  0
   -9.6932    1.3417    0.0059 O   0  0  0  0  0  0  0  0  0  0  0  0
   -6.6718    0.9388   -4.8120 O   0  0  0  0  0  0  0  0  0  0  0  0
  -10.7172    0.3394    0.0329 C   0  0  0  0  0  0  0  0  0  0  0  0
   -6.1878    2.2331   -5.1787 C   0  0  0  0  0  0  0  0  0  0  0  0
   -6.8652   -1.7353   -0.3608 N   0  0  0  0  0  0  0  0  0  0  0  0
  -11.0626    0.0168    1.4875 C   0  0  0  0  0  0  0  0  0  0  0  0
   -6.7967   -2.6288    0.8274 C   0  0  0  0  0  0  0  0  0  0  0  0
   -5.5308   -1.6757   -1.0137 C   0  0  0  0  0  0  0  0  0  0  0  0
  -11.6805    1.2447    2.1638 C   0  0  0  0  0  0  0  0  0  0  0  0
   -5.8139   -2.1022    1.8870 C   0  0  0  0  0  0  0  0  0  0  0  0
   -4.4740   -1.0490   -0.0883 C   0  0  0  0  0  0  0  0  0  0  0  0
  -12.1012    0.8922    3.5383 N   0  0  0  0  0  0  0  0  0  0  0  0
   -4.9149   -1.0375    1.3413 N   0  0  0  0  0  0  0  0  0  0  0  0
   -4.2770   -0.1623    2.2400 C   0  0  0  0  0  0  0  0  0  0  0  0
   -3.1230   -0.5270    2.8678 N   0  0  0  0  0  0  0  0  0  0  0  0
   -4.8667    1.0118    2.6051 N   0  0  0  0  0  0  0  0  0  0  0  0
   -8.9357    1.2361   -1.2029 C   0  0  0  0  0  0  0  0  0  0  0  0
   -7.7760    0.4148   -1.2455 C   0  0  0  0  0  0  0  0  0  0  0  0
   -7.0233    0.3164   -2.4486 C   0  0  0  0  0  0  0  0  0  0  0  0
   -7.4309    1.0375   -3.6037 C   0  0  0  0  0  0  0  0  0  0  0  0
   -8.5901    1.8557   -3.5584 C   0  0  0  0  0  0  0  0  0  0  0  0
   -9.3415    1.9556   -2.3579 C   0  0  0  0  0  0  0  0  0  0  0  0
  2  4  1  0  0  0  0
  3  5  1  0  0  0  0
  4  7  1  0  0  0  0
  6  1  1  0  0  0  0
  7 10  1  0  0  0  0
  8  6  1  0  0  0  0
  8 11  1  0  0  0  0
  9  6  1  0  0  0  0
 10 13  1  0  0  0  0
 11 14  1  0  0  0  0
 12  9  1  0  0  0  0
 14 12  1  0  0  0  0
 14 15  1  0  0  0  0
 15 16  1  0  0  0  0
 15 17  1  0  0  0  0
 18  2  1  0  0  0  0
 18 23  2  0  0  0  0
 19  1  1  0  0  0  0
 19 18  1  0  0  0  0
 20 19  2  0  0  0  0
 21  3  1  0  0  0  0
 21 20  1  0  0  0  0
 22 21  2  0  0  0  0
 22 23  1  0  0  0  0
M  END
>  <CHROM.1>
153.66162536,64.97040887,-164.28027253,175.87735240,17.91766231,82.65768796
93.22069632,87.06113362,-90.57294063,139.82408355,-119.64623000,-7.44035005
0.15075255,-0.21608926,0.64512351,-0.26876959,1.82992914

>  <Name>
1uui_lig

>  <RI>
0

>  <Rbt.Current_Directory>
/home/itssahil/PROJECTS/Mol_Feturizer/New_Systems/rnas/1uui

>  <Rbt.Executable>
rbdock ($Id: //depot/dev/client3/rdock/2013.1/src/exe/rbdock.cxx#4 $)

>  <Rbt.Library>
libRbt.so (2013.1, Build901 2013/11/27)

>  <Rbt.Parameter_File>
/export/apps/rDock/src/rDock_2013.1_src/data/scripts/dock_solv.prm

>  <Rbt.Receptor>
prm/pocket_docking_7.prm

>  <SCORE>
-20.0916

>  <SCORE.INTER>
-17.4

>  <SCORE.INTER.CONST>
1

>  <SCORE.INTER.POLAR>
-2.73164

>  <SCORE.INTER.ROT>
10

>  <SCORE.INTER.SOLV>
4.17932

>  <SCORE.INTER.VDW>
-14.1543

>  <SCORE.INTER.norm>
-0.756521

>  <SCORE.INTRA>
-2.69162

>  <SCORE.INTRA.DIHEDRAL>
-4.11706

>  <SCORE.INTRA.DIHEDRAL.0>
23.4151

>  <SCORE.INTRA.POLAR>
0

>  <SCORE.INTRA.POLAR.0>
0

>  <SCORE.INTRA.REPUL>
0

>  <SCORE.INTRA.REPUL.0>
0

>  <SCORE.INTRA.SOLV>
-0.0449007

>  <SCORE.INTRA.SOLV.lig_0>
-17.3568

>  <SCORE.INTRA.VDW>
-0.610637

>  <SCORE.INTRA.VDW.0>
1.0768

>  <SCORE.INTRA.norm>
-0.117027

>  <SCORE.RESTR>
0

>  <SCORE.RESTR.CAVITY>
0

>  <SCORE.RESTR.norm>
0

>  <SCORE.SYSTEM>
0

>  <SCORE.SYSTEM.CONST>
0

>  <SCORE.SYSTEM.DIHEDRAL>
0

>  <SCORE.SYSTEM.SOLV>
0

>  <SCORE.SYSTEM.norm>
0

>  <SCORE.heavy>
23

>  <SCORE.norm>
-0.873548

>  <RMSD>
6.505

$$$$
1uui_lig
 OpenBabel11021811413D
libRbt.so/2013.1/901 2013/11/27
 23 24  0  0  0  0  0  0  0  0999 V2000
  -10.6080    0.4408    0.3739 C   0  0  0  0  0  0  0  0  0  0  0  0
  -11.6906    2.9903   -0.5087 O   0  0  0  0  0  0  0  0  0  0  0  0
  -14.2637    0.3688    3.8514 O   0  0  0  0  0  0  0  0  0  0  0  0
  -11.5108    4.3805   -0.2101 C   0  0  0  0  0  0  0  0  0  0  0  0
  -14.0441    1.1106    5.0537 C   0  0  0  0  0  0  0  0  0  0  0  0
   -9.7044    1.5069   -0.1703 N   0  0  0  0  0  0  0  0  0  0  0  0
  -12.7283    5.1604   -0.7087 C   0  0  0  0  0  0  0  0  0  0  0  0
   -8.9103    1.0039   -1.3240 C   0  0  0  0  0  0  0  0  0  0  0  0
   -8.7840    2.0116    0.8826 C   0  0  0  0  0  0  0  0  0  0  0  0
  -12.6316    5.3701   -2.2232 C   0  0  0  0  0  0  0  0  0  0  0  0
   -8.0071   -0.1769   -0.9293 C   0  0  0  0  0  0  0  0  0  0  0  0
   -7.9007    0.8874    1.4502 C   0  0  0  0  0  0  0  0  0  0  0  0
  -12.8645    4.0831   -2.9159 N   0  0  0  0  0  0  0  0  0  0  0  0
   -7.8723   -0.3110    0.5551 N   0  0  0  0  0  0  0  0  0  0  0  0
   -7.4628   -1.5466    1.0900 C   0  0  0  0  0  0  0  0  0  0  0  0
   -7.8413   -2.7190    0.5058 N   0  0  0  0  0  0  0  0  0  0  0  0
   -6.7934   -1.6038    2.2767 N   0  0  0  0  0  0  0  0  0  0  0  0
  -12.3322    2.3326    0.5876 C   0  0  0  0  0  0  0  0  0  0  0  0
  -11.8391    1.0834    1.0541 C   0  0  0  0  0  0  0  0  0  0  0  0
  -12.4833    0.4308    2.1418 C   0  0  0  0  0  0  0  0  0  0  0  0
  -13.6162    1.0273    2.7591 C   0  0  0  0  0  0  0  0  0  0  0  0
  -14.1054    2.2754    2.2918 C   0  0  0  0  0  0  0  0  0  0  0  0
  -13.4640    2.9270    1.2056 C   0  0  0  0  0  0  0  0  0  0  0  0
  2  4  1  0  0  0  0
  3  5  1  0  0  0  0
  4  7  1  0  0  0  0
  6  1  1  0  0  0  0
  7 10  1  0  0  0  0
  8  6  1  0  0  0  0
  8 11  1  0  0  0  0
  9  6  1  0  0  0  0
 10 13  1  0  0  0  0
 11 14  1  0  0  0  0
 12  9  1  0  0  0  0
 14 12  1  0  0  0  0
 14 15  1  0  0  0  0
 15 16  1  0  0  0  0
 15 17  1  0  0  0  0
 18  2  1  0  0  0  0
 18 23  2  0  0  0  0
 19  1  1  0  0  0  0
 19 18  1  0  0  0  0
 20 19  2  0  0  0  0
 21  3  1  0  0  0  0
 21 20  1  0  0  0  0
 22 21  2  0  0  0  0
 22 23  1  0  0  0  0
M  END
>  <CHROM.1>
-90.98660016,-78.50727743,-153.26795178,71.60068300,-174.85353440,-34.66294928
-54.23708913,-4.74829727,-134.38272139,30.01491274,111.08712160,-10.89639838
1.42007018,0.71280285,0.48385441,-0.50179149,2.27652570

>  <Name>
1uui_lig

>  <RI>
0

>  <Rbt.Current_Directory>
/home/itssahil/PROJECTS/Mol_Feturizer/New_Systems/rnas/1uui

>  <Rbt.Executable>
rbdock ($Id: //depot/dev/client3/rdock/2013.1/src/exe/rbdock.cxx#4 $)

>  <Rbt.Library>
libRbt.so (2013.1, Build901 2013/11/27)

>  <Rbt.Parameter_File>
/export/apps/rDock/src/rDock_2013.1_src/data/scripts/dock_solv.prm

>  <Rbt.Receptor>
prm/pocket_docking_3.prm

>  <SCORE>
-19.903

>  <SCORE.INTER>
-14.7872

>  <SCORE.INTER.CONST>
1

>  <SCORE.INTER.POLAR>
-3.17378

>  <SCORE.INTER.ROT>
10

>  <SCORE.INTER.SOLV>
6.29558

>  <SCORE.INTER.VDW>
-11.644

>  <SCORE.INTER.norm>
-0.64292

>  <SCORE.INTRA>
-5.11588

>  <SCORE.INTRA.DIHEDRAL>
-5.40051

>  <SCORE.INTRA.DIHEDRAL.0>
23.4151

>  <SCORE.INTRA.POLAR>
-1.2246

>  <SCORE.INTRA.POLAR.0>
0

>  <SCORE.INTRA.REPUL>
0

>  <SCORE.INTRA.REPUL.0>
0

>  <SCORE.INTRA.SOLV>
0.844302

>  <SCORE.INTRA.SOLV.lig_0>
-17.3568

>  <SCORE.INTRA.VDW>
1.32587

>  <SCORE.INTRA.VDW.0>
1.0768

>  <SCORE.INTRA.norm>
-0.222429

>  <SCORE.RESTR>
0

>  <SCORE.RESTR.CAVITY>
0

>  <SCORE.RESTR.norm>
0

>  <SCORE.SYSTEM>
0

>  <SCORE.SYSTEM.CONST>
0

>  <SCORE.SYSTEM.DIHEDRAL>
0

>  <SCORE.SYSTEM.SOLV>
0

>  <SCORE.SYSTEM.norm>
0

>  <SCORE.heavy>
23

>  <SCORE.norm>
-0.86535

>  <RMSD>
6.513

$$$$
1uui_lig
 OpenBabel11021811413D
libRbt.so/2013.1/901 2013/11/27
 23 24  0  0  0  0  0  0  0  0999 V2000
  -10.3942    0.0969   -0.5874 C   0  0  0  0  0  0  0  0  0  0  0  0
  -11.8135    2.3550   -1.7441 O   0  0  0  0  0  0  0  0  0  0  0  0
  -14.5598   -0.8299    2.1053 O   0  0  0  0  0  0  0  0  0  0  0  0
  -12.3789    2.1430   -3.0439 C   0  0  0  0  0  0  0  0  0  0  0  0
  -14.8886   -2.0955    1.5274 C   0  0  0  0  0  0  0  0  0  0  0  0
   -9.5665    1.3459   -0.6520 N   0  0  0  0  0  0  0  0  0  0  0  0
  -13.6178    3.0261   -3.2001 C   0  0  0  0  0  0  0  0  0  0  0  0
   -8.3254    1.1303   -1.4444 C   0  0  0  0  0  0  0  0  0  0  0  0
   -9.2083    1.8169    0.7119 C   0  0  0  0  0  0  0  0  0  0  0  0
  -13.2286    4.5021   -3.0696 C   0  0  0  0  0  0  0  0  0  0  0  0
   -7.4303    0.0426   -0.8266 C   0  0  0  0  0  0  0  0  0  0  0  0
   -8.4054    0.7570    1.4854 C   0  0  0  0  0  0  0  0  0  0  0  0
  -12.8009    4.7792   -1.6801 N   0  0  0  0  0  0  0  0  0  0  0  0
   -7.8294   -0.2840    0.5783 N   0  0  0  0  0  0  0  0  0  0  0  0
   -7.4259   -1.5144    1.1293 C   0  0  0  0  0  0  0  0  0  0  0  0
   -6.9870   -1.5908    2.4179 N   0  0  0  0  0  0  0  0  0  0  0  0
   -7.3368   -2.6302    0.3504 N   0  0  0  0  0  0  0  0  0  0  0  0
  -12.4992    1.5568   -0.7752 C   0  0  0  0  0  0  0  0  0  0  0  0
  -11.8462    0.4417   -0.1825 C   0  0  0  0  0  0  0  0  0  0  0  0
  -12.5337   -0.3520    0.7773 C   0  0  0  0  0  0  0  0  0  0  0  0
  -13.8694   -0.0297    1.1414 C   0  0  0  0  0  0  0  0  0  0  0  0
  -14.5183    1.0852    0.5487 C   0  0  0  0  0  0  0  0  0  0  0  0
  -13.8335    1.8773   -0.4101 C   0  0  0  0  0  0  0  0  0  0  0  0
  2  4  1  0  0  0  0
  3  5  1  0  0  0  0
  4  7  1  0  0  0  0
  6  1  1  0  0  0  0
  7 10  1  0  0  0  0
  8  6  1  0  0  0  0
  8 11  1  0  0  0  0
  9  6  1  0  0  0  0
 10 13  1  0  0  0  0
 11 14  1  0  0  0  0
 12  9  1  0  0  0  0
 14 12  1  0  0  0  0
 14 15  1  0  0  0  0
 15 16  1  0  0  0  0
 15 17  1  0  0  0  0
 18  2  1  0  0  0  0
 18 23  2  0  0  0  0
 19  1  1  0  0  0  0
 19 18  1  0  0  0  0
 20 19  2  0  0  0  0
 21  3  1  0  0  0  0
 21 20  1  0  0  0  0
 22 21  2  0  0  0  0
 22 23  1  0  0  0  0
M  END
>  <CHROM.1>
82.95621500,60.92122728,-161.55316728,-67.71383890,170.47702536,138.87271745
171.85905642,-17.82947513,109.53217781,43.75878624,-71.81532768,-11.05694843
0.76950451,-0.20713348,-0.59395766,0.08151582,-0.69684543

>  <Name>
1uui_lig

>  <RI>
0

>  <Rbt.Current_Directory>
/home/itssahil/PROJECTS/Mol_Feturizer/New_Systems/rnas/1uui

>  <Rbt.Executable>
rbdock ($Id: //depot/dev/client3/rdock/2013.1/src/exe/rbdock.cxx#4 $)

>  <Rbt.Library>
libRbt.so (2013.1, Build901 2013/11/27)

>  <Rbt.Parameter_File>
/export/apps/rDock/src/rDock_2013.1_src/data/scripts/dock_solv.prm

>  <Rbt.Receptor>
prm/pocket_docking_3.prm

>  <SCORE>
-25.2681

>  <SCORE.INTER>
-15.7802

>  <SCORE.INTER.CONST>
1

>  <SCORE.INTER.POLAR>
-2.75071

>  <SCORE.INTER.ROT>
10

>  <SCORE.INTER.SOLV>
6.12095

>  <SCORE.INTER.VDW>
-13.6581

>  <SCORE.INTER.norm>
-0.686095

>  <SCORE.INTRA>
-9.48791

>  <SCORE.INTRA.DIHEDRAL>
-7.15849

>  <SCORE.INTRA.DIHEDRAL.0>
23.4151

>  <SCORE.INTRA.POLAR>
-1.48749

>  <SCORE.INTRA.POLAR.0>
0

>  <SCORE.INTRA.REPUL>
0

>  <SCORE.INTRA.REPUL.0>
0

>  <SCORE.INTRA.SOLV>
1.03033

>  <SCORE.INTRA.SOLV.lig_0>
-17.3568

>  <SCORE.INTRA.VDW>
-1.36635

>  <SCORE.INTRA.VDW.0>
1.0768

>  <SCORE.INTRA.norm>
-0.412518

>  <SCORE.RESTR>
0

>  <SCORE.RESTR.CAVITY>
0

>  <SCORE.RESTR.norm>
0

>  <SCORE.SYSTEM>
0

>  <SCORE.SYSTEM.CONST>
0

>  <SCORE.SYSTEM.DIHEDRAL>
0

>  <SCORE.SYSTEM.SOLV>
0

>  <SCORE.SYSTEM.norm>
0

>  <SCORE.heavy>
23

>  <SCORE.norm>
-1.09861

>  <RMSD>
6.530

$$$$
1uui_lig
 OpenBabel11021811413D
libRbt.so/2013.1/901 2013/11/27
 23 24  0  0  0  0  0  0  0  0999 V2000
  -11.1944    1.5185   -0.4572 C   0  0  0  0  0  0  0  0  0  0  0  0
  -10.6486    0.8004    2.3065 O   0  0  0  0  0  0  0  0  0  0  0  0
   -7.3261   -1.4572   -1.7393 O   0  0  0  0  0  0  0  0  0  0  0  0
  -11.8285    0.0034    2.4693 C   0  0  0  0  0  0  0  0  0  0  0  0
   -6.4041   -0.4705   -2.2088 C   0  0  0  0  0  0  0  0  0  0  0  0
  -10.7723    2.9418   -0.2439 N   0  0  0  0  0  0  0  0  0  0  0  0
  -12.5437    0.4258    3.7536 C   0  0  0  0  0  0  0  0  0  0  0  0
  -11.9425    3.8609   -0.2681 C   0  0  0  0  0  0  0  0  0  0  0  0
   -9.7885    3.3644   -1.2754 C   0  0  0  0  0  0  0  0  0  0  0  0
  -13.6743   -0.5580    4.0711 C   0  0  0  0  0  0  0  0  0  0  0  0
  -12.6784    3.8195   -1.6182 C   0  0  0  0  0  0  0  0  0  0  0  0
  -10.3708    3.2515   -2.6946 C   0  0  0  0  0  0  0  0  0  0  0  0
  -14.1836   -0.3009    5.4368 N   0  0  0  0  0  0  0  0  0  0  0  0
  -11.8637    3.1551   -2.6833 N   0  0  0  0  0  0  0  0  0  0  0  0
  -12.5186    2.6498   -3.8219 C   0  0  0  0  0  0  0  0  0  0  0  0
  -11.9184    1.7172   -4.6149 N   0  0  0  0  0  0  0  0  0  0  0  0
  -13.7073    3.1770   -4.2325 N   0  0  0  0  0  0  0  0  0  0  0  0
   -9.8138    0.2382    1.2900 C   0  0  0  0  0  0  0  0  0  0  0  0
  -10.0428    0.5596   -0.0759 C   0  0  0  0  0  0  0  0  0  0  0  0
   -9.2128   -0.0055   -1.0837 C   0  0  0  0  0  0  0  0  0  0  0  0
   -8.1584   -0.8885   -0.7245 C   0  0  0  0  0  0  0  0  0  0  0  0
   -7.9316   -1.2064    0.6404 C   0  0  0  0  0  0  0  0  0  0  0  0
   -8.7599   -0.6439    1.6470 C   0  0  0  0  0  0  0  0  0  0  0  0
  2  4  1  0  0  0  0
  3  5  1  0  0  0  0
  4  7  1  0  0  0  0
  6  1  1  0  0  0  0
  7 10  1  0  0  0  0
  8  6  1  0  0  0  0
  8 11  1  0  0  0  0
  9  6  1  0  0  0  0
 10 13  1  0  0  0  0
 11 14  1  0  0  0  0
 12  9  1  0  0  0  0
 14 12  1  0  0  0  0
 14 15  1  0  0  0  0
 15 16  1  0  0  0  0
 15 17  1  0  0  0  0
 18  2  1  0  0  0  0
 18 23  2  0  0  0  0
 19  1  1  0  0  0  0
 19 18  1  0  0  0  0
 20 19  2  0  0  0  0
 21  3  1  0  0  0  0
 21 20  1  0  0  0  0
 22 21  2  0  0  0  0
 22 23  1  0  0  0  0
M  END
>  <CHROM.1>
167.29845492,-170.73004085,-165.68297678,168.99158445,57.28746397,-160.74792213
-137.33237732,-155.42931489,85.13524642,80.22635380,75.82672509,-10.81504160
1.14701371,-0.26399690,1.42873427,0.51481057,-1.12610165

>  <Name>
1uui_lig

>  <RI>
0

>  <Rbt.Current_Directory>
/home/itssahil/PROJECTS/Mol_Feturizer/New_Systems/rnas/1uui

>  <Rbt.Executable>
rbdock ($Id: //depot/dev/client3/rdock/2013.1/src/exe/rbdock.cxx#4 $)

>  <Rbt.Library>
libRbt.so (2013.1, Build901 2013/11/27)

>  <Rbt.Parameter_File>
/export/apps/rDock/src/rDock_2013.1_src/data/scripts/dock_solv.prm

>  <Rbt.Receptor>
prm/pocket_docking_4.prm

>  <SCORE>
-23.3254

>  <SCORE.INTER>
-16.6769

>  <SCORE.INTER.CONST>
1

>  <SCORE.INTER.POLAR>
-2.31353

>  <SCORE.INTER.ROT>
10

>  <SCORE.INTER.SOLV>
8.83449

>  <SCORE.INTER.VDW>
-16.6176

>  <SCORE.INTER.norm>
-0.725081

>  <SCORE.INTRA>
-6.67028

>  <SCORE.INTRA.DIHEDRAL>
-7.74315

>  <SCORE.INTRA.DIHEDRAL.0>
23.4151

>  <SCORE.INTRA.POLAR>
0

>  <SCORE.INTRA.POLAR.0>
0

>  <SCORE.INTRA.REPUL>
0

>  <SCORE.INTRA.REPUL.0>
0

>  <SCORE.INTRA.SOLV>
0.105717

>  <SCORE.INTRA.SOLV.lig_0>
-17.3568

>  <SCORE.INTRA.VDW>
-2.85157

>  <SCORE.INTRA.VDW.0>
1.0768

>  <SCORE.INTRA.norm>
-0.290012

>  <SCORE.RESTR>
0.0217376

>  <SCORE.RESTR.CAVITY>
0.0217376

>  <SCORE.RESTR.norm>
0.000945112

>  <SCORE.SYSTEM>
0

>  <SCORE.SYSTEM.CONST>
0

>  <SCORE.SYSTEM.DIHEDRAL>
0

>  <SCORE.SYSTEM.SOLV>
0

>  <SCORE.SYSTEM.norm>
0

>  <SCORE.heavy>
23

>  <SCORE.norm>
-1.01415

>  <RMSD>
6.541

$$$$
1uui_lig
 OpenBabel11021811413D
libRbt.so/2013.1/901 2013/11/27
 23 24  0  0  0  0  0  0  0  0999 V2000
   -7.0583    1.6915   -0.2402 C   0  0  0  0  0  0  0  0  0  0  0  0
   -7.3500    2.7560   -2.9296 O   0  0  0  0  0  0  0  0  0  0  0  0
   -4.7436    6.0124    0.9570 O   0  0  0  0  0  0  0  0  0  0  0  0
   -6.4661    2.4954   -4.0272 C   0  0  0  0  0  0  0  0  0  0  0  0
   -5.7208    6.7721    1.6725 C   0  0  0  0  0  0  0  0  0  0  0  0
   -8.2882    1.8213    0.6084 N   0  0  0  0  0  0  0  0  0  0  0  0
   -6.9312    1.2330   -4.7547 C   0  0  0  0  0  0  0  0  0  0  0  0
   -7.9639    1.6788    2.0538 C   0  0  0  0  0  0  0  0  0  0  0  0
   -9.3065    0.8076    0.2264 C   0  0  0  0  0  0  0  0  0  0  0  0
   -6.7860    0.0157   -3.8360 C   0  0  0  0  0  0  0  0  0  0  0  0
   -7.3539    0.3034    2.3734 C   0  0  0  0  0  0  0  0  0  0  0  0
   -8.7695   -0.6247    0.3882 C   0  0  0  0  0  0  0  0  0  0  0  0
   -5.7042   -0.8586   -4.3417 N   0  0  0  0  0  0  0  0  0  0  0  0
   -7.5529   -0.6738    1.2576 N   0  0  0  0  0  0  0  0  0  0  0  0
   -6.7142   -1.8016    1.1862 C   0  0  0  0  0  0  0  0  0  0  0  0
   -6.9833   -2.8165    0.3164 N   0  0  0  0  0  0  0  0  0  0  0  0
   -5.6937   -1.9676    2.0753 N   0  0  0  0  0  0  0  0  0  0  0  0
   -6.6930    3.5697   -1.9537 C   0  0  0  0  0  0  0  0  0  0  0  0
   -6.5275    3.0919   -0.6250 C   0  0  0  0  0  0  0  0  0  0  0  0
   -5.8774    3.9066    0.3433 C   0  0  0  0  0  0  0  0  0  0  0  0
   -5.3954    5.1939   -0.0184 C   0  0  0  0  0  0  0  0  0  0  0  0
   -5.5609    5.6676   -1.3463 C   0  0  0  0  0  0  0  0  0  0  0  0
   -6.2106    4.8559   -2.3132 C   0  0  0  0  0  0  0  0  0  0  0  0
  2  4  1  0  0  0  0
  3  5  1  0  0  0  0
  4  7  1  0  0  0  0
  6  1  1  0  0  0  0
  7 10  1  0  0  0  0
  8  6  1  0  0  0  0
  8 11  1  0  0  0  0
  9  6  1  0  0  0  0
 10 13  1  0  0  0  0
 11 14  1  0  0  0  0
 12  9  1  0  0  0  0
 14 12  1  0  0  0  0
 14 15  1  0  0  0  0
 15 16  1  0  0  0  0
 15 17  1  0  0  0  0
 18  2  1  0  0  0  0
 18 23  2  0  0  0  0
 19  1  1  0  0  0  0
 19 18  1  0  0  0  0
 20 19  2  0  0  0  0
 21  3  1  0  0  0  0
 21 20  1  0  0  0  0
 22 21  2  0  0  0  0
 22 23  1  0  0  0  0
M  END
>  <CHROM.1>
157.74146174,-65.51385278,-98.47594772,-110.74527903,163.81525741,169.98453653
14.55569280,-94.56313318,-120.39544439,-106.64286186,-86.87232080,-6.76104754
1.78717990,-0.56644141,2.93598332,-1.36290561,-1.89474558

>  <Name>
1uui_lig

>  <RI>
0

>  <Rbt.Current_Directory>
/home/itssahil/PROJECTS/Mol_Feturizer/New_Systems/rnas/1uui

>  <Rbt.Executable>
rbdock ($Id: //depot/dev/client3/rdock/2013.1/src/exe/rbdock.cxx#4 $)

>  <Rbt.Library>
libRbt.so (2013.1, Build901 2013/11/27)

>  <Rbt.Parameter_File>
/export/apps/rDock/src/rDock_2013.1_src/data/scripts/dock_solv.prm

>  <Rbt.Receptor>
prm/pocket_docking_8.prm

>  <SCORE>
-21.6611

>  <SCORE.INTER>
-20.3031

>  <SCORE.INTER.CONST>
1

>  <SCORE.INTER.POLAR>
-3.92176

>  <SCORE.INTER.ROT>
10

>  <SCORE.INTER.SOLV>
6.01959

>  <SCORE.INTER.VDW>
-12.736

>  <SCORE.INTER.norm>
-0.882742

>  <SCORE.INTRA>
-1.35806

>  <SCORE.INTRA.DIHEDRAL>
0.0058779

>  <SCORE.INTRA.DIHEDRAL.0>
23.4151

>  <SCORE.INTRA.POLAR>
0

>  <SCORE.INTRA.POLAR.0>
0

>  <SCORE.INTRA.REPUL>
0

>  <SCORE.INTRA.REPUL.0>
0

>  <SCORE.INTRA.SOLV>
0.0794963

>  <SCORE.INTRA.SOLV.lig_0>
-17.3568

>  <SCORE.INTRA.VDW>
-1.40075

>  <SCORE.INTRA.VDW.0>
1.0768

>  <SCORE.INTRA.norm>
-0.0590463

>  <SCORE.RESTR>
0

>  <SCORE.RESTR.CAVITY>
0

>  <SCORE.RESTR.norm>
0

>  <SCORE.SYSTEM>
0

>  <SCORE.SYSTEM.CONST>
0

>  <SCORE.SYSTEM.DIHEDRAL>
0

>  <SCORE.SYSTEM.SOLV>
0

>  <SCORE.SYSTEM.norm>
0

>  <SCORE.heavy>
23

>  <SCORE.norm>
-0.941789

>  <RMSD>
6.541

$$$$
1uui_lig
 OpenBabel11021811413D
libRbt.so/2013.1/901 2013/11/27
 23 24  0  0  0  0  0  0  0  0999 V2000
  -10.2502    0.3654    1.5158 C   0  0  0  0  0  0  0  0  0  0  0  0
  -12.2848    1.5522   -0.1881 O   0  0  0  0  0  0  0  0  0  0  0  0
  -13.4231    1.0630    5.3769 O   0  0  0  0  0  0  0  0  0  0  0  0
  -12.4855    2.9056   -0.6148 C   0  0  0  0  0  0  0  0  0  0  0  0
  -14.2505   -0.0827    5.5934 C   0  0  0  0  0  0  0  0  0  0  0  0
   -9.5296    1.4969    0.8450 N   0  0  0  0  0  0  0  0  0  0  0  0
  -12.1144    3.0236   -2.0938 C   0  0  0  0  0  0  0  0  0  0  0  0
   -9.0619    1.1089   -0.5134 C   0  0  0  0  0  0  0  0  0  0  0  0
   -8.3694    1.9451    1.6596 C   0  0  0  0  0  0  0  0  0  0  0  0
  -13.0077    2.1041   -2.9328 C   0  0  0  0  0  0  0  0  0  0  0  0
   -8.0772   -0.0718   -0.4671 C   0  0  0  0  0  0  0  0  0  0  0  0
   -7.3590    0.8067    1.8821 C   0  0  0  0  0  0  0  0  0  0  0  0
  -12.6471    2.2352   -4.3622 N   0  0  0  0  0  0  0  0  0  0  0  0
   -7.5567   -0.3170    0.9144 N   0  0  0  0  0  0  0  0  0  0  0  0
   -7.0112   -1.5779    1.2198 C   0  0  0  0  0  0  0  0  0  0  0  0
   -7.2404   -2.6511    0.4107 N   0  0  0  0  0  0  0  0  0  0  0  0
   -6.3559   -1.7861    2.3974 N   0  0  0  0  0  0  0  0  0  0  0  0
  -12.5666    1.4319    1.2091 C   0  0  0  0  0  0  0  0  0  0  0  0
  -11.6025    0.8573    2.0818 C   0  0  0  0  0  0  0  0  0  0  0  0
  -11.8890    0.7357    3.4699 C   0  0  0  0  0  0  0  0  0  0  0  0
  -13.1359    1.1878    3.9811 C   0  0  0  0  0  0  0  0  0  0  0  0
  -14.0961    1.7622    3.1074 C   0  0  0  0  0  0  0  0  0  0  0  0
  -13.8117    1.8831    1.7217 C   0  0  0  0  0  0  0  0  0  0  0  0
  2  4  1  0  0  0  0
  3  5  1  0  0  0  0
  4  7  1  0  0  0  0
  6  1  1  0  0  0  0
  7 10  1  0  0  0  0
  8  6  1  0  0  0  0
  8 11  1  0  0  0  0
  9  6  1  0  0  0  0
 10 13  1  0  0  0  0
 11 14  1  0  0  0  0
 12  9  1  0  0  0  0
 14 12  1  0  0  0  0
 14 15  1  0  0  0  0
 15 16  1  0  0  0  0
 15 17  1  0  0  0  0
 18  2  1  0  0  0  0
 18 23  2  0  0  0  0
 19  1  1  0  0  0  0
 19 18  1  0  0  0  0
 20 19  2  0  0  0  0
 21  3  1  0  0  0  0
 21 20  1  0  0  0  0
 22 21  2  0  0  0  0
 22 23  1  0  0  0  0
M  END
>  <CHROM.1>
177.32240586,60.76488727,-130.40655109,179.53369484,-61.17486444,-16.03793019
-10.02775806,115.34308829,-126.85798636,58.60571558,-99.91367147,-10.74688902
0.84427029,1.08095008,0.01404402,-0.40074005,1.83867697

>  <Name>
1uui_lig

>  <RI>
0

>  <Rbt.Current_Directory>
/home/itssahil/PROJECTS/Mol_Feturizer/New_Systems/rnas/1uui

>  <Rbt.Executable>
rbdock ($Id: //depot/dev/client3/rdock/2013.1/src/exe/rbdock.cxx#4 $)

>  <Rbt.Library>
libRbt.so (2013.1, Build901 2013/11/27)

>  <Rbt.Parameter_File>
/export/apps/rDock/src/rDock_2013.1_src/data/scripts/dock_solv.prm

>  <Rbt.Receptor>
prm/pocket_docking_5.prm

>  <SCORE>
-28.2127

>  <SCORE.INTER>
-23.0351

>  <SCORE.INTER.CONST>
1

>  <SCORE.INTER.POLAR>
-3.81953

>  <SCORE.INTER.ROT>
10

>  <SCORE.INTER.SOLV>
7.57322

>  <SCORE.INTER.VDW>
-15.416

>  <SCORE.INTER.norm>
-1.00153

>  <SCORE.INTRA>
-5.17756

>  <SCORE.INTRA.DIHEDRAL>
-7.97236

>  <SCORE.INTRA.DIHEDRAL.0>
23.4151

>  <SCORE.INTRA.POLAR>
0

>  <SCORE.INTRA.POLAR.0>
0

>  <SCORE.INTRA.REPUL>
0

>  <SCORE.INTRA.REPUL.0>
0

>  <SCORE.INTRA.SOLV>
0.295505

>  <SCORE.INTRA.SOLV.lig_0>
-17.3568

>  <SCORE.INTRA.VDW>
-1.33914

>  <SCORE.INTRA.VDW.0>
1.0768

>  <SCORE.INTRA.norm>
-0.225112

>  <SCORE.RESTR>
0

>  <SCORE.RESTR.CAVITY>
0

>  <SCORE.RESTR.norm>
0

>  <SCORE.SYSTEM>
0

>  <SCORE.SYSTEM.CONST>
0

>  <SCORE.SYSTEM.DIHEDRAL>
0

>  <SCORE.SYSTEM.SOLV>
0

>  <SCORE.SYSTEM.norm>
0

>  <SCORE.heavy>
23

>  <SCORE.norm>
-1.22664

>  <RMSD>
6.545

$$$$
1uui_lig
 OpenBabel11021811413D
libRbt.so/2013.1/901 2013/11/27
 23 24  0  0  0  0  0  0  0  0999 V2000
   -9.8099    0.8338    1.8777 C   0  0  0  0  0  0  0  0  0  0  0  0
  -11.7612    1.5154   -0.1666 O   0  0  0  0  0  0  0  0  0  0  0  0
  -13.2931    2.1308    5.2903 O   0  0  0  0  0  0  0  0  0  0  0  0
  -12.6484    0.5996   -0.8208 C   0  0  0  0  0  0  0  0  0  0  0  0
  -13.3742    0.8446    5.9092 C   0  0  0  0  0  0  0  0  0  0  0  0
   -8.8463    1.9800    1.7935 N   0  0  0  0  0  0  0  0  0  0  0  0
  -12.4394    0.6952   -2.3329 C   0  0  0  0  0  0  0  0  0  0  0  0
   -8.3582    2.1734    0.4010 C   0  0  0  0  0  0  0  0  0  0  0  0
   -7.6872    1.7673    2.7001 C   0  0  0  0  0  0  0  0  0  0  0  0
  -12.8310    2.0909   -2.8285 C   0  0  0  0  0  0  0  0  0  0  0  0
   -7.6130    0.9347   -0.1244 C   0  0  0  0  0  0  0  0  0  0  0  0
   -6.9221    0.4796    2.3499 C   0  0  0  0  0  0  0  0  0  0  0  0
  -12.5811    2.1863   -4.2841 N   0  0  0  0  0  0  0  0  0  0  0  0
   -7.2501   -0.0128    0.9757 N   0  0  0  0  0  0  0  0  0  0  0  0
   -6.9693   -1.3531    0.6514 C   0  0  0  0  0  0  0  0  0  0  0  0
   -7.9520   -2.1803    0.1941 N   0  0  0  0  0  0  0  0  0  0  0  0
   -5.7437   -1.8906    0.9133 N   0  0  0  0  0  0  0  0  0  0  0  0
  -12.1420    1.6727    1.2032 C   0  0  0  0  0  0  0  0  0  0  0  0
  -11.2217    1.3514    2.2381 C   0  0  0  0  0  0  0  0  0  0  0  0
  -11.6065    1.5051    3.5991 C   0  0  0  0  0  0  0  0  0  0  0  0
  -12.9073    1.9786    3.9214 C   0  0  0  0  0  0  0  0  0  0  0  0
  -13.8236    2.2999    2.8857 C   0  0  0  0  0  0  0  0  0  0  0  0
  -13.4411    2.1458    1.5271 C   0  0  0  0  0  0  0  0  0  0  0  0
  2  4  1  0  0  0  0
  3  5  1  0  0  0  0
  4  7  1  0  0  0  0
  6  1  1  0  0  0  0
  7 10  1  0  0  0  0
  8  6  1  0  0  0  0
  8 11  1  0  0  0  0
  9  6  1  0  0  0  0
 10 13  1  0  0  0  0
 11 14  1  0  0  0  0
 12  9  1  0  0  0  0
 14 12  1  0  0  0  0
 14 15  1  0  0  0  0
 15 16  1  0  0  0  0
 15 17  1  0  0  0  0
 18  2  1  0  0  0  0
 18 23  2  0  0  0  0
 19  1  1  0  0  0  0
 19 18  1  0  0  0  0
 20 19  2  0  0  0  0
 21  3  1  0  0  0  0
 21 20  1  0  0  0  0
 22 21  2  0  0  0  0
 22 23  1  0  0  0  0
M  END
>  <CHROM.1>
166.75839890,-64.09272186,-113.53176458,178.08069190,-53.41243895,-67.87539400
129.29859710,-28.77758170,120.85679781,92.21016375,-67.21095407,-10.45004683
1.00410333,1.14819216,-0.24645813,-0.35387294,1.54891390

>  <Name>
1uui_lig

>  <RI>
0

>  <Rbt.Current_Directory>
/home/itssahil/PROJECTS/Mol_Feturizer/New_Systems/rnas/1uui

>  <Rbt.Executable>
rbdock ($Id: //depot/dev/client3/rdock/2013.1/src/exe/rbdock.cxx#4 $)

>  <Rbt.Library>
libRbt.so (2013.1, Build901 2013/11/27)

>  <Rbt.Parameter_File>
/export/apps/rDock/src/rDock_2013.1_src/data/scripts/dock_solv.prm

>  <Rbt.Receptor>
prm/pocket_docking_6.prm

>  <SCORE>
-22.7815

>  <SCORE.INTER>
-17.1507

>  <SCORE.INTER.CONST>
1

>  <SCORE.INTER.POLAR>
-2.74963

>  <SCORE.INTER.ROT>
10

>  <SCORE.INTER.SOLV>
5.79091

>  <SCORE.INTER.VDW>
-14.4653

>  <SCORE.INTER.norm>
-0.745681

>  <SCORE.INTRA>
-5.63087

>  <SCORE.INTRA.DIHEDRAL>
-6.96144

>  <SCORE.INTRA.DIHEDRAL.0>
23.4151

>  <SCORE.INTRA.POLAR>
0

>  <SCORE.INTRA.POLAR.0>
0

>  <SCORE.INTRA.REPUL>
0

>  <SCORE.INTRA.REPUL.0>
0

>  <SCORE.INTRA.SOLV>
0.0915457

>  <SCORE.INTRA.SOLV.lig_0>
-17.3568

>  <SCORE.INTRA.VDW>
-2.19592

>  <SCORE.INTRA.VDW.0>
1.0768

>  <SCORE.INTRA.norm>
-0.24482

>  <SCORE.RESTR>
0

>  <SCORE.RESTR.CAVITY>
0

>  <SCORE.RESTR.norm>
0

>  <SCORE.SYSTEM>
0

>  <SCORE.SYSTEM.CONST>
0

>  <SCORE.SYSTEM.DIHEDRAL>
0

>  <SCORE.SYSTEM.SOLV>
0

>  <SCORE.SYSTEM.norm>
0

>  <SCORE.heavy>
23

>  <SCORE.norm>
-0.990502

>  <RMSD>
6.552

$$$$
1uui_lig
 OpenBabel11021811413D
libRbt.so/2013.1/901 2013/11/27
 23 24  0  0  0  0  0  0  0  0999 V2000
  -10.5207    0.7981    1.4863 C   0  0  0  0  0  0  0  0  0  0  0  0
  -12.3836    2.1187   -0.3129 O   0  0  0  0  0  0  0  0  0  0  0  0
  -14.4267   -1.9429    3.1270 O   0  0  0  0  0  0  0  0  0  0  0  0
  -13.2155    3.2838   -0.2471 C   0  0  0  0  0  0  0  0  0  0  0  0
  -15.1129   -1.3396    4.2266 C   0  0  0  0  0  0  0  0  0  0  0  0
  -10.1152    1.4328    0.1893 N   0  0  0  0  0  0  0  0  0  0  0  0
  -13.1393    4.0284   -1.5809 C   0  0  0  0  0  0  0  0  0  0  0  0
  -10.1913    0.4600   -0.9344 C   0  0  0  0  0  0  0  0  0  0  0  0
   -8.7371    1.9839    0.2756 C   0  0  0  0  0  0  0  0  0  0  0  0
  -13.9788    3.3006   -2.6356 C   0  0  0  0  0  0  0  0  0  0  0  0
   -9.2526   -0.7396   -0.7210 C   0  0  0  0  0  0  0  0  0  0  0  0
   -7.7084    0.8896    0.6085 C   0  0  0  0  0  0  0  0  0  0  0  0
  -13.1274    2.9641   -3.7985 N   0  0  0  0  0  0  0  0  0  0  0  0
   -8.2476   -0.4832    0.3578 N   0  0  0  0  0  0  0  0  0  0  0  0
   -7.6173   -1.5812    0.9724 C   0  0  0  0  0  0  0  0  0  0  0  0
   -7.3130   -2.7009    0.2563 N   0  0  0  0  0  0  0  0  0  0  0  0
   -7.4191   -1.6045    2.3214 N   0  0  0  0  0  0  0  0  0  0  0  0
  -12.8946    1.1020    0.5539 C   0  0  0  0  0  0  0  0  0  0  0  0
  -12.0216    0.4276    1.4507 C   0  0  0  0  0  0  0  0  0  0  0  0
  -12.5336   -0.5860    2.3075 C   0  0  0  0  0  0  0  0  0  0  0  0
  -13.9140   -0.9222    2.2659 C   0  0  0  0  0  0  0  0  0  0  0  0
  -14.7835   -0.2462    1.3703 C   0  0  0  0  0  0  0  0  0  0  0  0
  -14.2734    0.7648    0.5138 C   0  0  0  0  0  0  0  0  0  0  0  0
  2  4  1  0  0  0  0
  3  5  1  0  0  0  0
  4  7  1  0  0  0  0
  6  1  1  0  0  0  0
  7 10  1  0  0  0  0
  8  6  1  0  0  0  0
  8 11  1  0  0  0  0
  9  6  1  0  0  0  0
 10 13  1  0  0  0  0
 11 14  1  0  0  0  0
 12  9  1  0  0  0  0
 14 12  1  0  0  0  0
 14 15  1  0  0  0  0
 15 16  1  0  0  0  0
 15 17  1  0  0  0  0
 18  2  1  0  0  0  0
 18 23  2  0  0  0  0
 19  1  1  0  0  0  0
 19 18  1  0  0  0  0
 20 19  2  0  0  0  0
 21  3  1  0  0  0  0
 21 20  1  0  0  0  0
 22 21  2  0  0  0  0
 22 23  1  0  0  0  0
M  END
>  <CHROM.1>
-151.49773276,76.23362330,-66.55087806,-123.51470405,-73.53406003,35.13885717
168.58836670,1.00937374,-131.75691230,-22.81940321,102.52288991,-11.38908407
0.49442220,0.48679460,0.45327672,-0.20526042,2.32822681

>  <Name>
1uui_lig

>  <RI>
0

>  <Rbt.Current_Directory>
/home/itssahil/PROJECTS/Mol_Feturizer/New_Systems/rnas/1uui

>  <Rbt.Executable>
rbdock ($Id: //depot/dev/client3/rdock/2013.1/src/exe/rbdock.cxx#4 $)

>  <Rbt.Library>
libRbt.so (2013.1, Build901 2013/11/27)

>  <Rbt.Parameter_File>
/export/apps/rDock/src/rDock_2013.1_src/data/scripts/dock_solv.prm

>  <Rbt.Receptor>
prm/pocket_docking_3.prm

>  <SCORE>
-31.8003

>  <SCORE.INTER>
-29.1648

>  <SCORE.INTER.CONST>
1

>  <SCORE.INTER.POLAR>
-5.36843

>  <SCORE.INTER.ROT>
10

>  <SCORE.INTER.SOLV>
8.09323

>  <SCORE.INTER.VDW>
-14.5128

>  <SCORE.INTER.norm>
-1.26803

>  <SCORE.INTRA>
-2.63552

>  <SCORE.INTRA.DIHEDRAL>
-1.63247

>  <SCORE.INTRA.DIHEDRAL.0>
23.4151

>  <SCORE.INTRA.POLAR>
-0.548518

>  <SCORE.INTRA.POLAR.0>
0

>  <SCORE.INTRA.REPUL>
0

>  <SCORE.INTRA.REPUL.0>
0

>  <SCORE.INTRA.SOLV>
0.612064

>  <SCORE.INTRA.SOLV.lig_0>
-17.3568

>  <SCORE.INTRA.VDW>
-0.260357

>  <SCORE.INTRA.VDW.0>
1.0768

>  <SCORE.INTRA.norm>
-0.114588

>  <SCORE.RESTR>
0

>  <SCORE.RESTR.CAVITY>
0

>  <SCORE.RESTR.norm>
0

>  <SCORE.SYSTEM>
0

>  <SCORE.SYSTEM.CONST>
0

>  <SCORE.SYSTEM.DIHEDRAL>
0

>  <SCORE.SYSTEM.SOLV>
0

>  <SCORE.SYSTEM.norm>
0

>  <SCORE.heavy>
23

>  <SCORE.norm>
-1.38262

>  <RMSD>
6.563

$$$$
1uui_lig
 OpenBabel11021811413D
libRbt.so/2013.1/901 2013/11/27
 23 24  0  0  0  0  0  0  0  0999 V2000
  -10.6102   -0.0681    0.8172 C   0  0  0  0  0  0  0  0  0  0  0  0
  -12.6561    1.8310    0.0054 O   0  0  0  0  0  0  0  0  0  0  0  0
  -13.6946   -1.4124    4.5777 O   0  0  0  0  0  0  0  0  0  0  0  0
  -13.7496    1.7373   -0.9162 C   0  0  0  0  0  0  0  0  0  0  0  0
  -12.9463   -0.9229    5.6932 C   0  0  0  0  0  0  0  0  0  0  0  0
  -10.0076    1.2834    0.5732 N   0  0  0  0  0  0  0  0  0  0  0  0
  -13.3969    2.5067   -2.1901 C   0  0  0  0  0  0  0  0  0  0  0  0
   -9.1809    1.2901   -0.6643 C   0  0  0  0  0  0  0  0  0  0  0  0
   -9.1744    1.7100    1.7283 C   0  0  0  0  0  0  0  0  0  0  0  0
  -12.2299    1.8224   -2.9091 C   0  0  0  0  0  0  0  0  0  0  0  0
   -8.0096    0.2967   -0.5787 C   0  0  0  0  0  0  0  0  0  0  0  0
   -8.0264    0.7216    1.9953 C   0  0  0  0  0  0  0  0  0  0  0  0
  -12.3012    2.1170   -4.3577 N   0  0  0  0  0  0  0  0  0  0  0  0
   -7.7691   -0.1709    0.8224 N   0  0  0  0  0  0  0  0  0  0  0  0
   -7.0575   -1.3679    1.0252 C   0  0  0  0  0  0  0  0  0  0  0  0
   -7.2449   -2.4384    0.2018 N   0  0  0  0  0  0  0  0  0  0  0  0
   -6.2677   -1.5304    2.1249 N   0  0  0  0  0  0  0  0  0  0  0  0
  -12.9129    1.0188    1.1546 C   0  0  0  0  0  0  0  0  0  0  0  0
  -11.9423    0.0752    1.5893 C   0  0  0  0  0  0  0  0  0  0  0  0
  -12.2040   -0.7335    2.7300 C   0  0  0  0  0  0  0  0  0  0  0  0
  -13.4325   -0.5972    3.4319 C   0  0  0  0  0  0  0  0  0  0  0  0
  -14.3990    0.3468    2.9962 C   0  0  0  0  0  0  0  0  0  0  0  0
  -14.1395    1.1537    1.8572 C   0  0  0  0  0  0  0  0  0  0  0  0
  2  4  1  0  0  0  0
  3  5  1  0  0  0  0
  4  7  1  0  0  0  0
  6  1  1  0  0  0  0
  7 10  1  0  0  0  0
  8  6  1  0  0  0  0
  8 11  1  0  0  0  0
  9  6  1  0  0  0  0
 10 13  1  0  0  0  0
 11 14  1  0  0  0  0
 12  9  1  0  0  0  0
 14 12  1  0  0  0  0
 14 15  1  0  0  0  0
 15 16  1  0  0  0  0
 15 17  1  0  0  0  0
 18  2  1  0  0  0  0
 18 23  2  0  0  0  0
 19  1  1  0  0  0  0
 19 18  1  0  0  0  0
 20 19  2  0  0  0  0
 21  3  1  0  0  0  0
 21 20  1  0  0  0  0
 22 21  2  0  0  0  0
 22 23  1  0  0  0  0
M  END
>  <CHROM.1>
-174.76887343,65.95108344,-151.43746567,153.12707221,169.33803075,-38.59257085
-174.73258246,-44.40628332,128.17074373,48.07793271,75.75679179,-10.96136496
0.37121648,0.88898034,0.19503480,-0.24053940,1.98338569

>  <Name>
1uui_lig

>  <RI>
0

>  <Rbt.Current_Directory>
/home/itssahil/PROJECTS/Mol_Feturizer/New_Systems/rnas/1uui

>  <Rbt.Executable>
rbdock ($Id: //depot/dev/client3/rdock/2013.1/src/exe/rbdock.cxx#4 $)

>  <Rbt.Library>
libRbt.so (2013.1, Build901 2013/11/27)

>  <Rbt.Parameter_File>
/export/apps/rDock/src/rDock_2013.1_src/data/scripts/dock_solv.prm

>  <Rbt.Receptor>
prm/pocket_docking_3.prm

>  <SCORE>
-31.3868

>  <SCORE.INTER>
-23.9204

>  <SCORE.INTER.CONST>
1

>  <SCORE.INTER.POLAR>
-4.22838

>  <SCORE.INTER.ROT>
10

>  <SCORE.INTER.SOLV>
8.14223

>  <SCORE.INTER.VDW>
-14.8331

>  <SCORE.INTER.norm>
-1.04002

>  <SCORE.INTRA>
-7.46641

>  <SCORE.INTRA.DIHEDRAL>
-7.09946

>  <SCORE.INTRA.DIHEDRAL.0>
23.4151

>  <SCORE.INTRA.POLAR>
-0.68435

>  <SCORE.INTRA.POLAR.0>
0

>  <SCORE.INTRA.REPUL>
0

>  <SCORE.INTRA.REPUL.0>
0

>  <SCORE.INTRA.SOLV>
0.338505

>  <SCORE.INTRA.SOLV.lig_0>
-17.3568

>  <SCORE.INTRA.VDW>
-1.75915

>  <SCORE.INTRA.VDW.0>
1.0768

>  <SCORE.INTRA.norm>
-0.324627

>  <SCORE.RESTR>
0

>  <SCORE.RESTR.CAVITY>
0

>  <SCORE.RESTR.norm>
0

>  <SCORE.SYSTEM>
0

>  <SCORE.SYSTEM.CONST>
0

>  <SCORE.SYSTEM.DIHEDRAL>
0

>  <SCORE.SYSTEM.SOLV>
0

>  <SCORE.SYSTEM.norm>
0

>  <SCORE.heavy>
23

>  <SCORE.norm>
-1.36464

>  <RMSD>
6.567

$$$$
1uui_lig
 OpenBabel11021811413D
libRbt.so/2013.1/901 2013/11/27
 23 24  0  0  0  0  0  0  0  0999 V2000
   -9.8868    0.1087   -0.0910 C   0  0  0  0  0  0  0  0  0  0  0  0
  -12.4356    0.5738   -1.4096 O   0  0  0  0  0  0  0  0  0  0  0  0
  -12.3319    0.6459    4.2902 O   0  0  0  0  0  0  0  0  0  0  0  0
  -11.7015    1.6881   -1.9325 C   0  0  0  0  0  0  0  0  0  0  0  0
  -12.9139   -0.5601    4.7910 C   0  0  0  0  0  0  0  0  0  0  0  0
   -9.0641    1.3604   -0.1669 N   0  0  0  0  0  0  0  0  0  0  0  0
  -12.0828    1.8939   -3.3992 C   0  0  0  0  0  0  0  0  0  0  0  0
   -7.9280    1.2026   -1.1151 C   0  0  0  0  0  0  0  0  0  0  0  0
   -8.5423    1.7353    1.1740 C   0  0  0  0  0  0  0  0  0  0  0  0
  -13.3839    2.6970   -3.4943 C   0  0  0  0  0  0  0  0  0  0  0  0
   -6.9731    0.0756   -0.6860 C   0  0  0  0  0  0  0  0  0  0  0  0
   -7.6603    0.6250    1.7701 C   0  0  0  0  0  0  0  0  0  0  0  0
  -13.1062    4.1227   -3.2100 N   0  0  0  0  0  0  0  0  0  0  0  0
   -7.2039   -0.3491    0.7303 N   0  0  0  0  0  0  0  0  0  0  0  0
   -6.7461   -1.6146    1.1420 C   0  0  0  0  0  0  0  0  0  0  0  0
   -6.9975   -2.7249    0.3917 N   0  0  0  0  0  0  0  0  0  0  0  0
   -6.1599   -1.7796    2.3621 N   0  0  0  0  0  0  0  0  0  0  0  0
  -12.4064    0.5952    0.0204 C   0  0  0  0  0  0  0  0  0  0  0  0
  -11.1832    0.3724    0.7097 C   0  0  0  0  0  0  0  0  0  0  0  0
  -11.1599    0.3902    2.1321 C   0  0  0  0  0  0  0  0  0  0  0  0
  -12.3569    0.6302    2.8601 C   0  0  0  0  0  0  0  0  0  0  0  0
  -13.5765    0.8537    2.1689 C   0  0  0  0  0  0  0  0  0  0  0  0
  -13.6012    0.8351    0.7495 C   0  0  0  0  0  0  0  0  0  0  0  0
  2  4  1  0  0  0  0
  3  5  1  0  0  0  0
  4  7  1  0  0  0  0
  6  1  1  0  0  0  0
  7 10  1  0  0  0  0
  8  6  1  0  0  0  0
  8 11  1  0  0  0  0
  9  6  1  0  0  0  0
 10 13  1  0  0  0  0
 11 14  1  0  0  0  0
 12  9  1  0  0  0  0
 14 12  1  0  0  0  0
 14 15  1  0  0  0  0
 15 16  1  0  0  0  0
 15 17  1  0  0  0  0
 18  2  1  0  0  0  0
 18 23  2  0  0  0  0
 19  1  1  0  0  0  0
 19 18  1  0  0  0  0
 20 19  2  0  0  0  0
 21  3  1  0  0  0  0
 21 20  1  0  0  0  0
 22 21  2  0  0  0  0
 22 23  1  0  0  0  0
M  END
>  <CHROM.1>
-163.16111531,82.45877969,-170.57811078,75.92332987,-168.04864956,-47.61682043
170.29119075,-33.84059290,-67.35548351,100.30495440,-105.12336143,-10.37506178
0.58806914,0.40006638,-0.58543918,0.31021872,-1.20081226

>  <Name>
1uui_lig

>  <RI>
0

>  <Rbt.Current_Directory>
/home/itssahil/PROJECTS/Mol_Feturizer/New_Systems/rnas/1uui

>  <Rbt.Executable>
rbdock ($Id: //depot/dev/client3/rdock/2013.1/src/exe/rbdock.cxx#4 $)

>  <Rbt.Library>
libRbt.so (2013.1, Build901 2013/11/27)

>  <Rbt.Parameter_File>
/export/apps/rDock/src/rDock_2013.1_src/data/scripts/dock_solv.prm

>  <Rbt.Receptor>
prm/pocket_docking_3.prm

>  <SCORE>
-25.9084

>  <SCORE.INTER>
-21.701

>  <SCORE.INTER.CONST>
1

>  <SCORE.INTER.POLAR>
-3.51589

>  <SCORE.INTER.ROT>
10

>  <SCORE.INTER.SOLV>
6.45453

>  <SCORE.INTER.VDW>
-15.1659

>  <SCORE.INTER.norm>
-0.94352

>  <SCORE.INTRA>
-4.20746

>  <SCORE.INTRA.DIHEDRAL>
-6.0267

>  <SCORE.INTRA.DIHEDRAL.0>
23.4151

>  <SCORE.INTRA.POLAR>
0

>  <SCORE.INTRA.POLAR.0>
0

>  <SCORE.INTRA.REPUL>
0

>  <SCORE.INTRA.REPUL.0>
0

>  <SCORE.INTRA.SOLV>
0.341117

>  <SCORE.INTRA.SOLV.lig_0>
-17.3568

>  <SCORE.INTRA.VDW>
-1.36466

>  <SCORE.INTRA.VDW.0>
1.0768

>  <SCORE.INTRA.norm>
-0.182933

>  <SCORE.RESTR>
0

>  <SCORE.RESTR.CAVITY>
0

>  <SCORE.RESTR.norm>
0

>  <SCORE.SYSTEM>
0

>  <SCORE.SYSTEM.CONST>
0

>  <SCORE.SYSTEM.DIHEDRAL>
0

>  <SCORE.SYSTEM.SOLV>
0

>  <SCORE.SYSTEM.norm>
0

>  <SCORE.heavy>
23

>  <SCORE.norm>
-1.12645

>  <RMSD>
6.569

$$$$
1uui_lig
 OpenBabel11021811413D
libRbt.so/2013.1/901 2013/11/27
 23 24  0  0  0  0  0  0  0  0999 V2000
  -10.9591    0.4035    0.4462 C   0  0  0  0  0  0  0  0  0  0  0  0
  -13.5992    1.3548   -0.3129 O   0  0  0  0  0  0  0  0  0  0  0  0
  -13.0840   -1.3940    4.6552 O   0  0  0  0  0  0  0  0  0  0  0  0
  -13.5783    0.4152   -1.3950 C   0  0  0  0  0  0  0  0  0  0  0  0
  -12.8249   -0.4527    5.6996 C   0  0  0  0  0  0  0  0  0  0  0  0
  -10.3640    1.7553    0.7069 N   0  0  0  0  0  0  0  0  0  0  0  0
  -13.8182    1.1605   -2.7088 C   0  0  0  0  0  0  0  0  0  0  0  0
   -9.3948    2.1324   -0.3576 C   0  0  0  0  0  0  0  0  0  0  0  0
   -9.6865    1.7913    2.0298 C   0  0  0  0  0  0  0  0  0  0  0  0
  -12.6879    2.1649   -2.9550 C   0  0  0  0  0  0  0  0  0  0  0  0
   -8.2189    1.1444   -0.4409 C   0  0  0  0  0  0  0  0  0  0  0  0
   -8.5556    0.7521    2.1163 C   0  0  0  0  0  0  0  0  0  0  0  0
  -13.1401    3.1900   -3.9221 N   0  0  0  0  0  0  0  0  0  0  0  0
   -8.1377    0.2627    0.7657 N   0  0  0  0  0  0  0  0  0  0  0  0
   -7.4272   -0.9485    0.6740 C   0  0  0  0  0  0  0  0  0  0  0  0
   -8.0447   -2.0889    0.2529 N   0  0  0  0  0  0  0  0  0  0  0  0
   -6.1454   -1.0399    1.1303 N   0  0  0  0  0  0  0  0  0  0  0  0
  -13.4668    0.6682    0.9349 C   0  0  0  0  0  0  0  0  0  0  0  0
  -12.1957    0.1840    1.3484 C   0  0  0  0  0  0  0  0  0  0  0  0
  -12.0697   -0.5022    2.5882 C   0  0  0  0  0  0  0  0  0  0  0  0
  -13.2122   -0.7022    3.4098 C   0  0  0  0  0  0  0  0  0  0  0  0
  -14.4799   -0.2164    2.9948 C   0  0  0  0  0  0  0  0  0  0  0  0
  -14.6071    0.4676    1.7572 C   0  0  0  0  0  0  0  0  0  0  0  0
  2  4  1  0  0  0  0
  3  5  1  0  0  0  0
  4  7  1  0  0  0  0
  6  1  1  0  0  0  0
  7 10  1  0  0  0  0
  8  6  1  0  0  0  0
  8 11  1  0  0  0  0
  9  6  1  0  0  0  0
 10 13  1  0  0  0  0
 11 14  1  0  0  0  0
 12  9  1  0  0  0  0
 14 12  1  0  0  0  0
 14 15  1  0  0  0  0
 15 16  1  0  0  0  0
 15 17  1  0  0  0  0
 18  2  1  0  0  0  0
 18 23  2  0  0  0  0
 19  1  1  0  0  0  0
 19 18  1  0  0  0  0
 20 19  2  0  0  0  0
 21  3  1  0  0  0  0
 21 20  1  0  0  0  0
 22 21  2  0  0  0  0
 22 23  1  0  0  0  0
M  END
>  <CHROM.1>
176.11321434,62.55219250,-166.07925472,-160.03496259,-55.61263278,-87.92609468
-51.45393668,-25.54329179,76.63658160,84.89344960,91.20846178,-11.24409344
0.47099132,0.79322724,-0.52672443,0.12552512,-1.17195985

>  <Name>
1uui_lig

>  <RI>
0

>  <Rbt.Current_Directory>
/home/itssahil/PROJECTS/Mol_Feturizer/New_Systems/rnas/1uui

>  <Rbt.Executable>
rbdock ($Id: //depot/dev/client3/rdock/2013.1/src/exe/rbdock.cxx#4 $)

>  <Rbt.Library>
libRbt.so (2013.1, Build901 2013/11/27)

>  <Rbt.Parameter_File>
/export/apps/rDock/src/rDock_2013.1_src/data/scripts/dock_solv.prm

>  <Rbt.Receptor>
prm/pocket_docking_3.prm

>  <SCORE>
-22.2741

>  <SCORE.INTER>
-14.7332

>  <SCORE.INTER.CONST>
1

>  <SCORE.INTER.POLAR>
-2.48629

>  <SCORE.INTER.ROT>
10

>  <SCORE.INTER.SOLV>
6.28573

>  <SCORE.INTER.VDW>
-13.8964

>  <SCORE.INTER.norm>
-0.640575

>  <SCORE.INTRA>
-7.56748

>  <SCORE.INTRA.DIHEDRAL>
-7.92889

>  <SCORE.INTRA.DIHEDRAL.0>
23.4151

>  <SCORE.INTRA.POLAR>
0

>  <SCORE.INTRA.POLAR.0>
0

>  <SCORE.INTRA.REPUL>
0

>  <SCORE.INTRA.REPUL.0>
0

>  <SCORE.INTRA.SOLV>
0.19993

>  <SCORE.INTRA.SOLV.lig_0>
-17.3568

>  <SCORE.INTRA.VDW>
-3.703

>  <SCORE.INTRA.VDW.0>
1.0768

>  <SCORE.INTRA.norm>
-0.329021

>  <SCORE.RESTR>
0.0265798

>  <SCORE.RESTR.CAVITY>
0.0265798

>  <SCORE.RESTR.norm>
0.00115564

>  <SCORE.SYSTEM>
0

>  <SCORE.SYSTEM.CONST>
0

>  <SCORE.SYSTEM.DIHEDRAL>
0

>  <SCORE.SYSTEM.SOLV>
0

>  <SCORE.SYSTEM.norm>
0

>  <SCORE.heavy>
23

>  <SCORE.norm>
-0.968441

>  <RMSD>
6.591

$$$$
1uui_lig
 OpenBabel11021811413D
libRbt.so/2013.1/901 2013/11/27
 23 24  0  0  0  0  0  0  0  0999 V2000
  -12.4819    1.5251    1.4472 C   0  0  0  0  0  0  0  0  0  0  0  0
  -11.1795    2.4191    3.8876 O   0  0  0  0  0  0  0  0  0  0  0  0
  -14.6090   -2.1240    4.2080 O   0  0  0  0  0  0  0  0  0  0  0  0
  -11.3862    3.2663    5.0249 C   0  0  0  0  0  0  0  0  0  0  0  0
  -15.9713   -1.6907    4.2224 C   0  0  0  0  0  0  0  0  0  0  0  0
  -11.0281    1.8405    1.2566 N   0  0  0  0  0  0  0  0  0  0  0  0
  -10.3539    4.3947    5.0019 C   0  0  0  0  0  0  0  0  0  0  0  0
  -10.8389    2.9358    0.2670 C   0  0  0  0  0  0  0  0  0  0  0  0
  -10.2770    0.6365    0.8130 C   0  0  0  0  0  0  0  0  0  0  0  0
  -10.5307    5.2913    6.2314 C   0  0  0  0  0  0  0  0  0  0  0  0
  -11.3916    2.5608   -1.1186 C   0  0  0  0  0  0  0  0  0  0  0  0
  -10.8201    0.0873   -0.5172 C   0  0  0  0  0  0  0  0  0  0  0  0
   -9.8783    4.6606    7.4006 N   0  0  0  0  0  0  0  0  0  0  0  0
  -11.6593    1.0934   -1.2397 N   0  0  0  0  0  0  0  0  0  0  0  0
  -12.5449    0.6456   -2.2375 C   0  0  0  0  0  0  0  0  0  0  0  0
  -12.5817    1.2499   -3.4592 N   0  0  0  0  0  0  0  0  0  0  0  0
  -13.4770   -0.3110   -1.9627 N   0  0  0  0  0  0  0  0  0  0  0  0
  -12.0374    1.2771    3.9648 C   0  0  0  0  0  0  0  0  0  0  0  0
  -12.6967    0.8033    2.7977 C   0  0  0  0  0  0  0  0  0  0  0  0
  -13.5525   -0.3301    2.8803 C   0  0  0  0  0  0  0  0  0  0  0  0
  -13.7466   -0.9856    4.1265 C   0  0  0  0  0  0  0  0  0  0  0  0
  -13.0858   -0.5109    5.2898 C   0  0  0  0  0  0  0  0  0  0  0  0
  -12.2324    0.6209    5.2088 C   0  0  0  0  0  0  0  0  0  0  0  0
  2  4  1  0  0  0  0
  3  5  1  0  0  0  0
  4  7  1  0  0  0  0
  6  1  1  0  0  0  0
  7 10  1  0  0  0  0
  8  6  1  0  0  0  0
  8 11  1  0  0  0  0
  9  6  1  0  0  0  0
 10 13  1  0  0  0  0
 11 14  1  0  0  0  0
 12  9  1  0  0  0  0
 14 12  1  0  0  0  0
 14 15  1  0  0  0  0
 15 16  1  0  0  0  0
 15 17  1  0  0  0  0
 18  2  1  0  0  0  0
 18 23  2  0  0  0  0
 19  1  1  0  0  0  0
 19 18  1  0  0  0  0
 20 19  2  0  0  0  0
 21  3  1  0  0  0  0
 21 20  1  0  0  0  0
 22 21  2  0  0  0  0
 22 23  1  0  0  0  0
M  END
>  <CHROM.1>
173.74834685,-178.39885806,-159.05230983,80.72305218,88.30810998,36.70933519
-161.70838341,-133.55004243,138.59102871,43.99674228,-78.16860713,-12.08862560
1.30673253,2.30783152,-1.79065789,0.90888164,1.44344042

>  <Name>
1uui_lig

>  <RI>
0

>  <Rbt.Current_Directory>
/home/itssahil/PROJECTS/Mol_Feturizer/New_Systems/rnas/1uui

>  <Rbt.Executable>
rbdock ($Id: //depot/dev/client3/rdock/2013.1/src/exe/rbdock.cxx#4 $)

>  <Rbt.Library>
libRbt.so (2013.1, Build901 2013/11/27)

>  <Rbt.Parameter_File>
/export/apps/rDock/src/rDock_2013.1_src/data/scripts/dock_solv.prm

>  <Rbt.Receptor>
prm/pocket_docking_5.prm

>  <SCORE>
-25.3117

>  <SCORE.INTER>
-17.5964

>  <SCORE.INTER.CONST>
1

>  <SCORE.INTER.POLAR>
-2.51111

>  <SCORE.INTER.ROT>
10

>  <SCORE.INTER.SOLV>
5.09523

>  <SCORE.INTER.VDW>
-15.3256

>  <SCORE.INTER.norm>
-0.765059

>  <SCORE.INTRA>
-7.71535

>  <SCORE.INTRA.DIHEDRAL>
-8.27226

>  <SCORE.INTRA.DIHEDRAL.0>
23.4151

>  <SCORE.INTRA.POLAR>
-0.787121

>  <SCORE.INTRA.POLAR.0>
0

>  <SCORE.INTRA.REPUL>
0

>  <SCORE.INTRA.REPUL.0>
0

>  <SCORE.INTRA.SOLV>
0.355246

>  <SCORE.INTRA.SOLV.lig_0>
-17.3568

>  <SCORE.INTRA.VDW>
-1.08063

>  <SCORE.INTRA.VDW.0>
1.0768

>  <SCORE.INTRA.norm>
-0.33545

>  <SCORE.RESTR>
0

>  <SCORE.RESTR.CAVITY>
0

>  <SCORE.RESTR.norm>
0

>  <SCORE.SYSTEM>
0

>  <SCORE.SYSTEM.CONST>
0

>  <SCORE.SYSTEM.DIHEDRAL>
0

>  <SCORE.SYSTEM.SOLV>
0

>  <SCORE.SYSTEM.norm>
0

>  <SCORE.heavy>
23

>  <SCORE.norm>
-1.10051

>  <RMSD>
6.607

$$$$
1uui_lig
 OpenBabel11021811413D
libRbt.so/2013.1/901 2013/11/27
 23 24  0  0  0  0  0  0  0  0999 V2000
   -9.7109    0.0757   -0.1507 C   0  0  0  0  0  0  0  0  0  0  0  0
  -12.1948   -0.0940   -1.6516 O   0  0  0  0  0  0  0  0  0  0  0  0
  -12.5368    0.5523    4.0025 O   0  0  0  0  0  0  0  0  0  0  0  0
  -13.0371    0.8617   -2.3082 C   0  0  0  0  0  0  0  0  0  0  0  0
  -13.0320   -0.6538    4.5892 C   0  0  0  0  0  0  0  0  0  0  0  0
   -8.9461    1.3474    0.0674 N   0  0  0  0  0  0  0  0  0  0  0  0
  -12.4184    2.2533   -2.1673 C   0  0  0  0  0  0  0  0  0  0  0  0
   -7.7116    1.3835   -0.7629 C   0  0  0  0  0  0  0  0  0  0  0  0
   -8.5849    1.5109    1.5003 C   0  0  0  0  0  0  0  0  0  0  0  0
  -13.4982    3.3263   -2.3400 C   0  0  0  0  0  0  0  0  0  0  0  0
   -6.7530    0.2309   -0.4186 C   0  0  0  0  0  0  0  0  0  0  0  0
   -7.7168    0.3449    2.0031 C   0  0  0  0  0  0  0  0  0  0  0  0
  -13.8416    3.4552   -3.7738 N   0  0  0  0  0  0  0  0  0  0  0  0
   -7.1086   -0.4293    0.8766 N   0  0  0  0  0  0  0  0  0  0  0  0
   -6.6352   -1.7307    1.1268 C   0  0  0  0  0  0  0  0  0  0  0  0
   -5.7286   -1.9643    2.1180 N   0  0  0  0  0  0  0  0  0  0  0  0
   -6.9679   -2.7632    0.3004 N   0  0  0  0  0  0  0  0  0  0  0  0
  -12.2781    0.0720   -0.2333 C   0  0  0  0  0  0  0  0  0  0  0  0
  -11.0903    0.1593    0.5431 C   0  0  0  0  0  0  0  0  0  0  0  0
  -11.1782    0.3199    1.9539 C   0  0  0  0  0  0  0  0  0  0  0  0
  -12.4504    0.3927    2.5837 C   0  0  0  0  0  0  0  0  0  0  0  0
  -13.6346    0.3065    1.8055 C   0  0  0  0  0  0  0  0  0  0  0  0
  -13.5481    0.1451    0.3976 C   0  0  0  0  0  0  0  0  0  0  0  0
  2  4  1  0  0  0  0
  3  5  1  0  0  0  0
  4  7  1  0  0  0  0
  6  1  1  0  0  0  0
  7 10  1  0  0  0  0
  8  6  1  0  0  0  0
  8 11  1  0  0  0  0
  9  6  1  0  0  0  0
 10 13  1  0  0  0  0
 11 14  1  0  0  0  0
 12  9  1  0  0  0  0
 14 12  1  0  0  0  0
 14 15  1  0  0  0  0
 15 16  1  0  0  0  0
 15 17  1  0  0  0  0
 18  2  1  0  0  0  0
 18 23  2  0  0  0  0
 19  1  1  0  0  0  0
 19 18  1  0  0  0  0
 20 19  2  0  0  0  0
 21  3  1  0  0  0  0
 21 20  1  0  0  0  0
 22 21  2  0  0  0  0
 22 23  1  0  0  0  0
M  END
>  <CHROM.1>
71.25639961,-157.61049583,-170.99355141,-75.76188084,-70.04682793,113.50509387
103.23721816,-6.73766512,-130.55530756,118.32063867,-110.19294276,-10.43250385
0.39909813,0.40442224,-0.48150354,0.24525598,-1.18483965

>  <Name>
1uui_lig

>  <RI>
0

>  <Rbt.Current_Directory>
/home/itssahil/PROJECTS/Mol_Feturizer/New_Systems/rnas/1uui

>  <Rbt.Executable>
rbdock ($Id: //depot/dev/client3/rdock/2013.1/src/exe/rbdock.cxx#4 $)

>  <Rbt.Library>
libRbt.so (2013.1, Build901 2013/11/27)

>  <Rbt.Parameter_File>
/export/apps/rDock/src/rDock_2013.1_src/data/scripts/dock_solv.prm

>  <Rbt.Receptor>
prm/pocket_docking_3.prm

>  <SCORE>
-30.0916

>  <SCORE.INTER>
-26.2068

>  <SCORE.INTER.CONST>
1

>  <SCORE.INTER.POLAR>
-4.38216

>  <SCORE.INTER.ROT>
10

>  <SCORE.INTER.SOLV>
5.72534

>  <SCORE.INTER.VDW>
-15.0392

>  <SCORE.INTER.norm>
-1.13943

>  <SCORE.INTRA>
-4.40995

>  <SCORE.INTRA.DIHEDRAL>
-8.49944

>  <SCORE.INTRA.DIHEDRAL.0>
23.4151

>  <SCORE.INTRA.POLAR>
0

>  <SCORE.INTRA.POLAR.0>
0

>  <SCORE.INTRA.REPUL>
0

>  <SCORE.INTRA.REPUL.0>
0

>  <SCORE.INTRA.SOLV>
0.0990054

>  <SCORE.INTRA.SOLV.lig_0>
-17.3568

>  <SCORE.INTRA.VDW>
-0.209736

>  <SCORE.INTRA.VDW.0>
1.0768

>  <SCORE.INTRA.norm>
-0.191737

>  <SCORE.RESTR>
0.525211

>  <SCORE.RESTR.CAVITY>
0.525211

>  <SCORE.RESTR.norm>
0.0228353

>  <SCORE.SYSTEM>
0

>  <SCORE.SYSTEM.CONST>
0

>  <SCORE.SYSTEM.DIHEDRAL>
0

>  <SCORE.SYSTEM.SOLV>
0

>  <SCORE.SYSTEM.norm>
0

>  <SCORE.heavy>
23

>  <SCORE.norm>
-1.30833

>  <RMSD>
6.608

$$$$
1uui_lig
 OpenBabel11021811413D
libRbt.so/2013.1/901 2013/11/27
 23 24  0  0  0  0  0  0  0  0999 V2000
  -10.1505   -0.0275    0.8131 C   0  0  0  0  0  0  0  0  0  0  0  0
  -12.0563    1.7883   -0.4208 O   0  0  0  0  0  0  0  0  0  0  0  0
  -13.8545   -1.3904    3.9571 O   0  0  0  0  0  0  0  0  0  0  0  0
  -12.1400    1.0350   -1.6372 C   0  0  0  0  0  0  0  0  0  0  0  0
  -13.6682   -0.6726    5.1795 C   0  0  0  0  0  0  0  0  0  0  0  0
   -9.5254    1.3329    0.7229 N   0  0  0  0  0  0  0  0  0  0  0  0
  -12.2236    2.0019   -2.8192 C   0  0  0  0  0  0  0  0  0  0  0  0
   -8.6088    1.4290   -0.4455 C   0  0  0  0  0  0  0  0  0  0  0  0
   -8.7788    1.6579    1.9668 C   0  0  0  0  0  0  0  0  0  0  0  0
  -13.4930    2.8528   -2.7109 C   0  0  0  0  0  0  0  0  0  0  0  0
   -7.4515    0.4199   -0.3531 C   0  0  0  0  0  0  0  0  0  0  0  0
   -7.6582    0.6396    2.2383 C   0  0  0  0  0  0  0  0  0  0  0  0
  -13.8958    3.3127   -4.0587 N   0  0  0  0  0  0  0  0  0  0  0  0
   -7.3182   -0.1597    1.0202 N   0  0  0  0  0  0  0  0  0  0  0  0
   -6.6290   -1.3763    1.1789 C   0  0  0  0  0  0  0  0  0  0  0  0
   -5.8951   -1.6205    2.3017 N   0  0  0  0  0  0  0  0  0  0  0  0
   -6.5690   -2.2804    0.1597 N   0  0  0  0  0  0  0  0  0  0  0  0
  -12.5041    0.9925    0.6803 C   0  0  0  0  0  0  0  0  0  0  0  0
  -11.6083    0.0896    1.3154 C   0  0  0  0  0  0  0  0  0  0  0  0
  -12.0595   -0.7031    2.4072 C   0  0  0  0  0  0  0  0  0  0  0  0
  -13.4021   -0.5913    2.8604 C   0  0  0  0  0  0  0  0  0  0  0  0
  -14.2938    0.3122    2.2249 C   0  0  0  0  0  0  0  0  0  0  0  0
  -13.8450    1.1030    1.1345 C   0  0  0  0  0  0  0  0  0  0  0  0
  2  4  1  0  0  0  0
  3  5  1  0  0  0  0
  4  7  1  0  0  0  0
  6  1  1  0  0  0  0
  7 10  1  0  0  0  0
  8  6  1  0  0  0  0
  8 11  1  0  0  0  0
  9  6  1  0  0  0  0
 10 13  1  0  0  0  0
 11 14  1  0  0  0  0
 12  9  1  0  0  0  0
 14 12  1  0  0  0  0
 14 15  1  0  0  0  0
 15 16  1  0  0  0  0
 15 17  1  0  0  0  0
 18  2  1  0  0  0  0
 18 23  2  0  0  0  0
 19  1  1  0  0  0  0
 19 18  1  0  0  0  0
 20 19  2  0  0  0  0
 21  3  1  0  0  0  0
 21 20  1  0  0  0  0
 22 21  2  0  0  0  0
 22 23  1  0  0  0  0
M  END
>  <CHROM.1>
157.03517804,-62.12484715,-143.79600922,-154.72292610,-60.04398323,146.31489538
99.21899026,34.40082033,83.70778535,51.14594253,91.56451237,-10.72918449
0.44792393,0.72614860,0.42569798,-0.17867608,2.04688463

>  <Name>
1uui_lig

>  <RI>
0

>  <Rbt.Current_Directory>
/home/itssahil/PROJECTS/Mol_Feturizer/New_Systems/rnas/1uui

>  <Rbt.Executable>
rbdock ($Id: //depot/dev/client3/rdock/2013.1/src/exe/rbdock.cxx#4 $)

>  <Rbt.Library>
libRbt.so (2013.1, Build901 2013/11/27)

>  <Rbt.Parameter_File>
/export/apps/rDock/src/rDock_2013.1_src/data/scripts/dock_solv.prm

>  <Rbt.Receptor>
prm/pocket_docking_5.prm

>  <SCORE>
-30.3868

>  <SCORE.INTER>
-24.791

>  <SCORE.INTER.CONST>
1

>  <SCORE.INTER.POLAR>
-4.37992

>  <SCORE.INTER.ROT>
10

>  <SCORE.INTER.SOLV>
5.87142

>  <SCORE.INTER.VDW>
-14.1514

>  <SCORE.INTER.norm>
-1.07787

>  <SCORE.INTRA>
-5.59579

>  <SCORE.INTRA.DIHEDRAL>
-2.96505

>  <SCORE.INTRA.DIHEDRAL.0>
23.4151

>  <SCORE.INTRA.POLAR>
-0.473362

>  <SCORE.INTRA.POLAR.0>
0

>  <SCORE.INTRA.REPUL>
0

>  <SCORE.INTRA.REPUL.0>
0

>  <SCORE.INTRA.SOLV>
0.286876

>  <SCORE.INTRA.SOLV.lig_0>
-17.3568

>  <SCORE.INTRA.VDW>
-2.64727

>  <SCORE.INTRA.VDW.0>
1.0768

>  <SCORE.INTRA.norm>
-0.243295

>  <SCORE.RESTR>
0

>  <SCORE.RESTR.CAVITY>
0

>  <SCORE.RESTR.norm>
0

>  <SCORE.SYSTEM>
0

>  <SCORE.SYSTEM.CONST>
0

>  <SCORE.SYSTEM.DIHEDRAL>
0

>  <SCORE.SYSTEM.SOLV>
0

>  <SCORE.SYSTEM.norm>
0

>  <SCORE.heavy>
23

>  <SCORE.norm>
-1.32117

>  <RMSD>
6.633

$$$$
1uui_lig
 OpenBabel11021811413D
libRbt.so/2013.1/901 2013/11/27
 23 24  0  0  0  0  0  0  0  0999 V2000
  -11.9996    0.9106    0.3009 C   0  0  0  0  0  0  0  0  0  0  0  0
  -11.6392    0.8691    3.1853 O   0  0  0  0  0  0  0  0  0  0  0  0
  -15.8924   -2.2260    0.9865 O   0  0  0  0  0  0  0  0  0  0  0  0
  -12.0945    2.2010    3.4549 C   0  0  0  0  0  0  0  0  0  0  0  0
  -17.1247   -1.5179    1.1422 C   0  0  0  0  0  0  0  0  0  0  0  0
  -11.1283    0.0004   -0.5128 N   0  0  0  0  0  0  0  0  0  0  0  0
  -13.0061    2.1787    4.6827 C   0  0  0  0  0  0  0  0  0  0  0  0
   -9.7444    0.5363   -0.6246 C   0  0  0  0  0  0  0  0  0  0  0  0
  -11.6937   -0.2002   -1.8731 C   0  0  0  0  0  0  0  0  0  0  0  0
  -12.1978    1.8018    5.9284 C   0  0  0  0  0  0  0  0  0  0  0  0
   -9.7135    1.9087   -1.3185 C   0  0  0  0  0  0  0  0  0  0  0  0
  -11.8280    1.1302   -2.6334 C   0  0  0  0  0  0  0  0  0  0  0  0
  -13.0945    1.7599    7.1050 N   0  0  0  0  0  0  0  0  0  0  0  0
  -11.0000    2.2144   -2.0193 N   0  0  0  0  0  0  0  0  0  0  0  0
  -11.3052    3.5543   -2.3228 C   0  0  0  0  0  0  0  0  0  0  0  0
  -12.5770    4.0271   -2.1889 N   0  0  0  0  0  0  0  0  0  0  0  0
  -10.3688    4.3716   -2.8837 N   0  0  0  0  0  0  0  0  0  0  0  0
  -12.7033    0.0903    2.6310 C   0  0  0  0  0  0  0  0  0  0  0  0
  -12.9190    0.0797    1.2258 C   0  0  0  0  0  0  0  0  0  0  0  0
  -13.9814   -0.6929    0.6795 C   0  0  0  0  0  0  0  0  0  0  0  0
  -14.8236   -1.4512    1.5374 C   0  0  0  0  0  0  0  0  0  0  0  0
  -14.6048   -1.4396    2.9400 C   0  0  0  0  0  0  0  0  0  0  0  0
  -13.5456   -0.6681    3.4864 C   0  0  0  0  0  0  0  0  0  0  0  0
  2  4  1  0  0  0  0
  3  5  1  0  0  0  0
  4  7  1  0  0  0  0
  6  1  1  0  0  0  0
  7 10  1  0  0  0  0
  8  6  1  0  0  0  0
  8 11  1  0  0  0  0
  9  6  1  0  0  0  0
 10 13  1  0  0  0  0
 11 14  1  0  0  0  0
 12  9  1  0  0  0  0
 14 12  1  0  0  0  0
 14 15  1  0  0  0  0
 15 16  1  0  0  0  0
 15 17  1  0  0  0  0
 18  2  1  0  0  0  0
 18 23  2  0  0  0  0
 19  1  1  0  0  0  0
 19 18  1  0  0  0  0
 20 19  2  0  0  0  0
 21  3  1  0  0  0  0
 21 20  1  0  0  0  0
 22 21  2  0  0  0  0
 22 23  1  0  0  0  0
M  END
>  <CHROM.1>
73.49513026,66.44321366,-139.62305572,-179.00112035,-61.30946915,-140.41619862
110.77115185,-123.87779448,88.12641180,110.22301526,-100.26455501,-12.55614429
0.89803262,1.00408311,0.96911717,-0.81396647,-1.69314497

>  <Name>
1uui_lig

>  <RI>
0

>  <Rbt.Current_Directory>
/home/itssahil/PROJECTS/Mol_Feturizer/New_Systems/rnas/1uui

>  <Rbt.Executable>
rbdock ($Id: //depot/dev/client3/rdock/2013.1/src/exe/rbdock.cxx#4 $)

>  <Rbt.Library>
libRbt.so (2013.1, Build901 2013/11/27)

>  <Rbt.Parameter_File>
/export/apps/rDock/src/rDock_2013.1_src/data/scripts/dock_solv.prm

>  <Rbt.Receptor>
prm/pocket_docking_5.prm

>  <SCORE>
-17.0652

>  <SCORE.INTER>
-11.6959

>  <SCORE.INTER.CONST>
1

>  <SCORE.INTER.POLAR>
-1.682

>  <SCORE.INTER.ROT>
10

>  <SCORE.INTER.SOLV>
4.25126

>  <SCORE.INTER.VDW>
-13.8744

>  <SCORE.INTER.norm>
-0.508519

>  <SCORE.INTRA>
-5.36926

>  <SCORE.INTRA.DIHEDRAL>
-5.90524

>  <SCORE.INTRA.DIHEDRAL.0>
23.4151

>  <SCORE.INTRA.POLAR>
0

>  <SCORE.INTRA.POLAR.0>
0

>  <SCORE.INTRA.REPUL>
0

>  <SCORE.INTRA.REPUL.0>
0

>  <SCORE.INTRA.SOLV>
0.00717273

>  <SCORE.INTRA.SOLV.lig_0>
-17.3568

>  <SCORE.INTRA.VDW>
-2.42023

>  <SCORE.INTRA.VDW.0>
1.0768

>  <SCORE.INTRA.norm>
-0.233446

>  <SCORE.RESTR>
0

>  <SCORE.RESTR.CAVITY>
0

>  <SCORE.RESTR.norm>
0

>  <SCORE.SYSTEM>
0

>  <SCORE.SYSTEM.CONST>
0

>  <SCORE.SYSTEM.DIHEDRAL>
0

>  <SCORE.SYSTEM.SOLV>
0

>  <SCORE.SYSTEM.norm>
0

>  <SCORE.heavy>
23

>  <SCORE.norm>
-0.741965

>  <RMSD>
6.637

$$$$
1uui_lig
 OpenBabel11021811413D
libRbt.so/2013.1/901 2013/11/27
 23 24  0  0  0  0  0  0  0  0999 V2000
   -8.9751    1.6502    1.7197 C   0  0  0  0  0  0  0  0  0  0  0  0
  -11.1906    2.4450    3.4261 O   0  0  0  0  0  0  0  0  0  0  0  0
   -6.7220    5.9653    3.0480 O   0  0  0  0  0  0  0  0  0  0  0  0
  -12.0293    2.5841    2.2723 C   0  0  0  0  0  0  0  0  0  0  0  0
   -6.9208    6.8784    1.9660 C   0  0  0  0  0  0  0  0  0  0  0  0
   -8.8542    1.9175    0.2489 N   0  0  0  0  0  0  0  0  0  0  0  0
  -13.1616    1.5589    2.3510 C   0  0  0  0  0  0  0  0  0  0  0  0
   -9.4970    0.8390   -0.5501 C   0  0  0  0  0  0  0  0  0  0  0  0
   -7.4284    2.0486   -0.1517 C   0  0  0  0  0  0  0  0  0  0  0  0
  -14.0819    1.7006    1.1344 C   0  0  0  0  0  0  0  0  0  0  0  0
   -8.8436   -0.5305   -0.2982 C   0  0  0  0  0  0  0  0  0  0  0  0
   -6.6308    0.7718    0.1640 C   0  0  0  0  0  0  0  0  0  0  0  0
  -15.2272    0.7732    1.2708 N   0  0  0  0  0  0  0  0  0  0  0  0
   -7.5241   -0.4056    0.3966 N   0  0  0  0  0  0  0  0  0  0  0  0
   -7.0078   -1.5235    1.0779 C   0  0  0  0  0  0  0  0  0  0  0  0
   -6.2659   -2.4594    0.4201 N   0  0  0  0  0  0  0  0  0  0  0  0
   -7.3486   -1.7662    2.3758 N   0  0  0  0  0  0  0  0  0  0  0  0
  -10.0700    3.3285    3.3266 C   0  0  0  0  0  0  0  0  0  0  0  0
   -8.9626    2.9822    2.5050 C   0  0  0  0  0  0  0  0  0  0  0  0
   -7.8484    3.8619    2.4128 C   0  0  0  0  0  0  0  0  0  0  0  0
   -7.8440    5.0829    3.1405 C   0  0  0  0  0  0  0  0  0  0  0  0
   -8.9518    5.4264    3.9591 C   0  0  0  0  0  0  0  0  0  0  0  0
  -10.0638    4.5488    4.0528 C   0  0  0  0  0  0  0  0  0  0  0  0
  2  4  1  0  0  0  0
  3  5  1  0  0  0  0
  4  7  1  0  0  0  0
  6  1  1  0  0  0  0
  7 10  1  0  0  0  0
  8  6  1  0  0  0  0
  8 11  1  0  0  0  0
  9  6  1  0  0  0  0
 10 13  1  0  0  0  0
 11 14  1  0  0  0  0
 12  9  1  0  0  0  0
 14 12  1  0  0  0  0
 14 15  1  0  0  0  0
 15 16  1  0  0  0  0
 15 17  1  0  0  0  0
 18  2  1  0  0  0  0
 18 23  2  0  0  0  0
 19  1  1  0  0  0  0
 19 18  1  0  0  0  0
 20 19  2  0  0  0  0
 21  3  1  0  0  0  0
 21 20  1  0  0  0  0
 22 21  2  0  0  0  0
 22 23  1  0  0  0  0
M  END
>  <CHROM.1>
175.84271524,179.32323412,-152.43123227,-175.86795357,-56.48626593,86.34791041
63.88408947,-171.79947912,-78.87180010,120.63852292,89.58143198,-9.22537219
2.00365942,1.72033042,-1.26619667,0.08516188,0.37889748

>  <Name>
1uui_lig

>  <RI>
0

>  <Rbt.Current_Directory>
/home/itssahil/PROJECTS/Mol_Feturizer/New_Systems/rnas/1uui

>  <Rbt.Executable>
rbdock ($Id: //depot/dev/client3/rdock/2013.1/src/exe/rbdock.cxx#4 $)

>  <Rbt.Library>
libRbt.so (2013.1, Build901 2013/11/27)

>  <Rbt.Parameter_File>
/export/apps/rDock/src/rDock_2013.1_src/data/scripts/dock_solv.prm

>  <Rbt.Receptor>
prm/pocket_docking_8.prm

>  <SCORE>
-16.6104

>  <SCORE.INTER>
-9.13752

>  <SCORE.INTER.CONST>
1

>  <SCORE.INTER.POLAR>
-2.66974

>  <SCORE.INTER.ROT>
10

>  <SCORE.INTER.SOLV>
4.68461

>  <SCORE.INTER.VDW>
-9.02076

>  <SCORE.INTER.norm>
-0.397283

>  <SCORE.INTRA>
-7.47288

>  <SCORE.INTRA.DIHEDRAL>
-7.90976

>  <SCORE.INTRA.DIHEDRAL.0>
23.4151

>  <SCORE.INTRA.POLAR>
0

>  <SCORE.INTRA.POLAR.0>
0

>  <SCORE.INTRA.REPUL>
0

>  <SCORE.INTRA.REPUL.0>
0

>  <SCORE.INTRA.SOLV>
-0.0626711

>  <SCORE.INTRA.SOLV.lig_0>
-17.3568

>  <SCORE.INTRA.VDW>
-3.48667

>  <SCORE.INTRA.VDW.0>
1.0768

>  <SCORE.INTRA.norm>
-0.324908

>  <SCORE.RESTR>
0

>  <SCORE.RESTR.CAVITY>
0

>  <SCORE.RESTR.norm>
0

>  <SCORE.SYSTEM>
0

>  <SCORE.SYSTEM.CONST>
0

>  <SCORE.SYSTEM.DIHEDRAL>
0

>  <SCORE.SYSTEM.SOLV>
0

>  <SCORE.SYSTEM.norm>
0

>  <SCORE.heavy>
23

>  <SCORE.norm>
-0.722191

>  <RMSD>
6.638

$$$$
1uui_lig
 OpenBabel11021811413D
libRbt.so/2013.1/901 2013/11/27
 23 24  0  0  0  0  0  0  0  0999 V2000
   -9.9288    1.6556   -1.0051 C   0  0  0  0  0  0  0  0  0  0  0  0
  -10.9870    0.0605    1.1830 O   0  0  0  0  0  0  0  0  0  0  0  0
   -5.3400    0.0953    0.3988 O   0  0  0  0  0  0  0  0  0  0  0  0
  -11.3142    0.6658    2.4402 C   0  0  0  0  0  0  0  0  0  0  0  0
   -4.8956   -1.2275    0.0880 C   0  0  0  0  0  0  0  0  0  0  0  0
  -10.3026    2.9540   -0.3541 N   0  0  0  0  0  0  0  0  0  0  0  0
  -12.5018   -0.0745    3.0572 C   0  0  0  0  0  0  0  0  0  0  0  0
  -11.7603    3.0100   -0.0599 C   0  0  0  0  0  0  0  0  0  0  0  0
   -9.9256    4.1071   -1.2137 C   0  0  0  0  0  0  0  0  0  0  0  0
  -12.6686    0.3341    4.5243 C   0  0  0  0  0  0  0  0  0  0  0  0
  -12.6095    2.8997   -1.3377 C   0  0  0  0  0  0  0  0  0  0  0  0
  -10.6242    4.0461   -2.5828 C   0  0  0  0  0  0  0  0  0  0  0  0
  -13.5668   -0.6253    5.2051 N   0  0  0  0  0  0  0  0  0  0  0  0
  -11.7958    3.1158   -2.5749 N   0  0  0  0  0  0  0  0  0  0  0  0
  -12.2880    2.6358   -3.8028 C   0  0  0  0  0  0  0  0  0  0  0  0
  -11.5476    1.7812   -4.5646 N   0  0  0  0  0  0  0  0  0  0  0  0
  -13.4537    3.1174   -4.3215 N   0  0  0  0  0  0  0  0  0  0  0  0
   -9.5701    0.0739    0.9867 C   0  0  0  0  0  0  0  0  0  0  0  0
   -9.0063    0.8387   -0.0708 C   0  0  0  0  0  0  0  0  0  0  0  0
   -7.5970    0.8453   -0.2650 C   0  0  0  0  0  0  0  0  0  0  0  0
   -6.7567    0.0890    0.5966 C   0  0  0  0  0  0  0  0  0  0  0  0
   -7.3226   -0.6727    1.6525 C   0  0  0  0  0  0  0  0  0  0  0  0
   -8.7291   -0.6809    1.8465 C   0  0  0  0  0  0  0  0  0  0  0  0
  2  4  1  0  0  0  0
  3  5  1  0  0  0  0
  4  7  1  0  0  0  0
  6  1  1  0  0  0  0
  7 10  1  0  0  0  0
  8  6  1  0  0  0  0
  8 11  1  0  0  0  0
  9  6  1  0  0  0  0
 10 13  1  0  0  0  0
 11 14  1  0  0  0  0
 12  9  1  0  0  0  0
 14 12  1  0  0  0  0
 14 15  1  0  0  0  0
 15 16  1  0  0  0  0
 15 17  1  0  0  0  0
 18  2  1  0  0  0  0
 18 23  2  0  0  0  0
 19  1  1  0  0  0  0
 19 18  1  0  0  0  0
 20 19  2  0  0  0  0
 21  3  1  0  0  0  0
 21 20  1  0  0  0  0
 22 21  2  0  0  0  0
 22 23  1  0  0  0  0
M  END
>  <CHROM.1>
-143.85963228,167.11866382,-114.30400889,-165.19217394,70.99638213,-123.92605019
29.42465750,49.48409498,-115.05794177,81.04459670,-117.53731058,-10.26267422
1.26656438,-0.01121565,-2.00785911,-0.25868044,2.01715877

>  <Name>
1uui_lig

>  <RI>
0

>  <Rbt.Current_Directory>
/home/itssahil/PROJECTS/Mol_Feturizer/New_Systems/rnas/1uui

>  <Rbt.Executable>
rbdock ($Id: //depot/dev/client3/rdock/2013.1/src/exe/rbdock.cxx#4 $)

>  <Rbt.Library>
libRbt.so (2013.1, Build901 2013/11/27)

>  <Rbt.Parameter_File>
/export/apps/rDock/src/rDock_2013.1_src/data/scripts/dock_solv.prm

>  <Rbt.Receptor>
prm/pocket_docking_3.prm

>  <SCORE>
-12.2216

>  <SCORE.INTER>
-9.45039

>  <SCORE.INTER.CONST>
1

>  <SCORE.INTER.POLAR>
-1.71204

>  <SCORE.INTER.ROT>
10

>  <SCORE.INTER.SOLV>
7.7101

>  <SCORE.INTER.VDW>
-13.4302

>  <SCORE.INTER.norm>
-0.410886

>  <SCORE.INTRA>
-3.29291

>  <SCORE.INTRA.DIHEDRAL>
-1.42563

>  <SCORE.INTRA.DIHEDRAL.0>
23.4151

>  <SCORE.INTRA.POLAR>
0

>  <SCORE.INTRA.POLAR.0>
0

>  <SCORE.INTRA.REPUL>
0

>  <SCORE.INTRA.REPUL.0>
0

>  <SCORE.INTRA.SOLV>
0.119269

>  <SCORE.INTRA.SOLV.lig_0>
-17.3568

>  <SCORE.INTRA.VDW>
-2.63972

>  <SCORE.INTRA.VDW.0>
1.0768

>  <SCORE.INTRA.norm>
-0.14317

>  <SCORE.RESTR>
0.521723

>  <SCORE.RESTR.CAVITY>
0.521723

>  <SCORE.RESTR.norm>
0.0226836

>  <SCORE.SYSTEM>
0

>  <SCORE.SYSTEM.CONST>
0

>  <SCORE.SYSTEM.DIHEDRAL>
0

>  <SCORE.SYSTEM.SOLV>
0

>  <SCORE.SYSTEM.norm>
0

>  <SCORE.heavy>
23

>  <SCORE.norm>
-0.531373

>  <RMSD>
6.649

$$$$
1uui_lig
 OpenBabel11021811413D
libRbt.so/2013.1/901 2013/11/27
 23 24  0  0  0  0  0  0  0  0999 V2000
   -8.7748    1.7003    0.9922 C   0  0  0  0  0  0  0  0  0  0  0  0
  -10.6966    3.1847   -0.6060 O   0  0  0  0  0  0  0  0  0  0  0  0
  -12.5320    0.8072    4.2398 O   0  0  0  0  0  0  0  0  0  0  0  0
  -11.5676    2.8240   -1.6855 C   0  0  0  0  0  0  0  0  0  0  0  0
  -13.0978   -0.4746    3.9553 C   0  0  0  0  0  0  0  0  0  0  0  0
   -8.6840    1.6093   -0.5022 N   0  0  0  0  0  0  0  0  0  0  0  0
  -12.6928    3.8551   -1.7858 C   0  0  0  0  0  0  0  0  0  0  0  0
   -9.3830    0.3986   -1.0124 C   0  0  0  0  0  0  0  0  0  0  0  0
   -7.2658    1.5877   -0.9478 C   0  0  0  0  0  0  0  0  0  0  0  0
  -13.8436    3.2942   -2.6272 C   0  0  0  0  0  0  0  0  0  0  0  0
   -8.7688   -0.8973   -0.4561 C   0  0  0  0  0  0  0  0  0  0  0  0
   -6.5027    0.3914   -0.3540 C   0  0  0  0  0  0  0  0  0  0  0  0
  -13.3568    2.9941   -3.9923 N   0  0  0  0  0  0  0  0  0  0  0  0
   -7.4279   -0.6631    0.1659 N   0  0  0  0  0  0  0  0  0  0  0  0
   -6.9311   -1.6084    1.0825 C   0  0  0  0  0  0  0  0  0  0  0  0
   -6.0652   -2.5816    0.6798 N   0  0  0  0  0  0  0  0  0  0  0  0
   -7.4060   -1.6557    2.3599 N   0  0  0  0  0  0  0  0  0  0  0  0
  -11.1539    2.5906    0.6122 C   0  0  0  0  0  0  0  0  0  0  0  0
  -10.2507    1.8544    1.4267 C   0  0  0  0  0  0  0  0  0  0  0  0
  -10.7112    1.2615    2.6351 C   0  0  0  0  0  0  0  0  0  0  0  0
  -12.0703    1.4056    3.0254 C   0  0  0  0  0  0  0  0  0  0  0  0
  -12.9695    2.1424    2.2105 C   0  0  0  0  0  0  0  0  0  0  0  0
  -12.5114    2.7336    1.0038 C   0  0  0  0  0  0  0  0  0  0  0  0
  2  4  1  0  0  0  0
  3  5  1  0  0  0  0
  4  7  1  0  0  0  0
  6  1  1  0  0  0  0
  7 10  1  0  0  0  0
  8  6  1  0  0  0  0
  8 11  1  0  0  0  0
  9  6  1  0  0  0  0
 10 13  1  0  0  0  0
 11 14  1  0  0  0  0
 12  9  1  0  0  0  0
 14 12  1  0  0  0  0
 14 15  1  0  0  0  0
 15 16  1  0  0  0  0
 15 17  1  0  0  0  0
 18  2  1  0  0  0  0
 18 23  2  0  0  0  0
 19  1  1  0  0  0  0
 19 18  1  0  0  0  0
 20 19  2  0  0  0  0
 21  3  1  0  0  0  0
 21 20  1  0  0  0  0
 22 21  2  0  0  0  0
 22 23  1  0  0  0  0
M  END
>  <CHROM.1>
89.27137649,-163.28851202,-63.13197815,-60.79147329,173.99430893,96.72095844
-102.10230836,-179.07386871,129.36348313,-34.46128495,-94.64772836,-10.18554553
1.13170262,0.40855620,-0.48064382,0.47481220,-1.15926441

>  <Name>
1uui_lig

>  <RI>
0

>  <Rbt.Current_Directory>
/home/itssahil/PROJECTS/Mol_Feturizer/New_Systems/rnas/1uui

>  <Rbt.Executable>
rbdock ($Id: //depot/dev/client3/rdock/2013.1/src/exe/rbdock.cxx#4 $)

>  <Rbt.Library>
libRbt.so (2013.1, Build901 2013/11/27)

>  <Rbt.Parameter_File>
/export/apps/rDock/src/rDock_2013.1_src/data/scripts/dock_solv.prm

>  <Rbt.Receptor>
prm/pocket_docking_4.prm

>  <SCORE>
-26.9513

>  <SCORE.INTER>
-21.0753

>  <SCORE.INTER.CONST>
1

>  <SCORE.INTER.POLAR>
-4.15076

>  <SCORE.INTER.ROT>
10

>  <SCORE.INTER.SOLV>
6.53948

>  <SCORE.INTER.VDW>
-12.6608

>  <SCORE.INTER.norm>
-0.916316

>  <SCORE.INTRA>
-5.87608

>  <SCORE.INTRA.DIHEDRAL>
-6.79971

>  <SCORE.INTRA.DIHEDRAL.0>
23.4151

>  <SCORE.INTRA.POLAR>
-0.617791

>  <SCORE.INTRA.POLAR.0>
0

>  <SCORE.INTRA.REPUL>
0

>  <SCORE.INTRA.REPUL.0>
0

>  <SCORE.INTRA.SOLV>
0.540246

>  <SCORE.INTRA.SOLV.lig_0>
-17.3568

>  <SCORE.INTRA.VDW>
-0.64586

>  <SCORE.INTRA.VDW.0>
1.0768

>  <SCORE.INTRA.norm>
-0.255482

>  <SCORE.RESTR>
0

>  <SCORE.RESTR.CAVITY>
0

>  <SCORE.RESTR.norm>
0

>  <SCORE.SYSTEM>
0

>  <SCORE.SYSTEM.CONST>
0

>  <SCORE.SYSTEM.DIHEDRAL>
0

>  <SCORE.SYSTEM.SOLV>
0

>  <SCORE.SYSTEM.norm>
0

>  <SCORE.heavy>
23

>  <SCORE.norm>
-1.1718

>  <RMSD>
6.654

$$$$
1uui_lig
 OpenBabel11021811413D
libRbt.so/2013.1/901 2013/11/27
 23 24  0  0  0  0  0  0  0  0999 V2000
  -10.2105    0.1890    1.2275 C   0  0  0  0  0  0  0  0  0  0  0  0
  -12.0993    1.7770   -0.3094 O   0  0  0  0  0  0  0  0  0  0  0  0
  -13.3164    0.7492    5.1648 O   0  0  0  0  0  0  0  0  0  0  0  0
  -13.0055    1.0554   -1.1533 C   0  0  0  0  0  0  0  0  0  0  0  0
  -13.6272   -0.6364    5.3304 C   0  0  0  0  0  0  0  0  0  0  0  0
   -9.7058    1.1240    0.1690 N   0  0  0  0  0  0  0  0  0  0  0  0
  -12.9021    1.6000   -2.5787 C   0  0  0  0  0  0  0  0  0  0  0  0
   -9.2831    0.3817   -1.0496 C   0  0  0  0  0  0  0  0  0  0  0  0
   -8.5672    1.9348    0.6755 C   0  0  0  0  0  0  0  0  0  0  0  0
  -13.5103    3.0045   -2.6481 C   0  0  0  0  0  0  0  0  0  0  0  0
   -8.1402   -0.6046   -0.7546 C   0  0  0  0  0  0  0  0  0  0  0  0
   -7.3927    1.0471    1.1214 C   0  0  0  0  0  0  0  0  0  0  0  0
  -13.8421    3.3301   -4.0532 N   0  0  0  0  0  0  0  0  0  0  0  0
   -7.4957   -0.3397    0.5699 N   0  0  0  0  0  0  0  0  0  0  0  0
   -6.7573   -1.3691    1.1827 C   0  0  0  0  0  0  0  0  0  0  0  0
   -6.1140   -2.3078    0.4317 N   0  0  0  0  0  0  0  0  0  0  0  0
   -6.7788   -1.5301    2.5367 N   0  0  0  0  0  0  0  0  0  0  0  0
  -12.4007    1.5211    1.0653 C   0  0  0  0  0  0  0  0  0  0  0  0
  -11.5073    0.7487    1.8569 C   0  0  0  0  0  0  0  0  0  0  0  0
  -11.8135    0.4930    3.2225 C   0  0  0  0  0  0  0  0  0  0  0  0
  -13.0093    1.0089    3.7920 C   0  0  0  0  0  0  0  0  0  0  0  0
  -13.8987    1.7808    2.9993 C   0  0  0  0  0  0  0  0  0  0  0  0
  -13.5947    2.0357    1.6361 C   0  0  0  0  0  0  0  0  0  0  0  0
  2  4  1  0  0  0  0
  3  5  1  0  0  0  0
  4  7  1  0  0  0  0
  6  1  1  0  0  0  0
  7 10  1  0  0  0  0
  8  6  1  0  0  0  0
  8 11  1  0  0  0  0
  9  6  1  0  0  0  0
 10 13  1  0  0  0  0
 11 14  1  0  0  0  0
 12  9  1  0  0  0  0
 14 12  1  0  0  0  0
 14 15  1  0  0  0  0
 15 16  1  0  0  0  0
 15 17  1  0  0  0  0
 18  2  1  0  0  0  0
 18 23  2  0  0  0  0
 19  1  1  0  0  0  0
 19 18  1  0  0  0  0
 20 19  2  0  0  0  0
 21  3  1  0  0  0  0
 21 20  1  0  0  0  0
 22 21  2  0  0  0  0
 22 23  1  0  0  0  0
M  END
>  <CHROM.1>
166.04323333,-70.55912850,-135.80127770,-160.28327719,33.41798150,29.93899809
73.01133786,-36.45537614,110.15770072,31.99883258,-69.27333017,-10.79294722
0.72726205,0.83585067,0.28257415,-0.37299911,1.84950039

>  <Name>
1uui_lig

>  <RI>
0

>  <Rbt.Current_Directory>
/home/itssahil/PROJECTS/Mol_Feturizer/New_Systems/rnas/1uui

>  <Rbt.Executable>
rbdock ($Id: //depot/dev/client3/rdock/2013.1/src/exe/rbdock.cxx#4 $)

>  <Rbt.Library>
libRbt.so (2013.1, Build901 2013/11/27)

>  <Rbt.Parameter_File>
/export/apps/rDock/src/rDock_2013.1_src/data/scripts/dock_solv.prm

>  <Rbt.Receptor>
prm/pocket_docking_3.prm

>  <SCORE>
-24.8788

>  <SCORE.INTER>
-19.8567

>  <SCORE.INTER.CONST>
1

>  <SCORE.INTER.POLAR>
-3.55225

>  <SCORE.INTER.ROT>
10

>  <SCORE.INTER.SOLV>
5.93763

>  <SCORE.INTER.VDW>
-13.6428

>  <SCORE.INTER.norm>
-0.863333

>  <SCORE.INTRA>
-5.6493

>  <SCORE.INTRA.DIHEDRAL>
-3.67034

>  <SCORE.INTRA.DIHEDRAL.0>
23.4151

>  <SCORE.INTRA.POLAR>
-0.801798

>  <SCORE.INTRA.POLAR.0>
0

>  <SCORE.INTRA.REPUL>
0

>  <SCORE.INTRA.REPUL.0>
0

>  <SCORE.INTRA.SOLV>
0.356169

>  <SCORE.INTRA.SOLV.lig_0>
-17.3568

>  <SCORE.INTRA.VDW>
-1.2661

>  <SCORE.INTRA.VDW.0>
1.0768

>  <SCORE.INTRA.norm>
-0.245622

>  <SCORE.RESTR>
0.627187

>  <SCORE.RESTR.CAVITY>
0.627187

>  <SCORE.RESTR.norm>
0.027269

>  <SCORE.SYSTEM>
0

>  <SCORE.SYSTEM.CONST>
0

>  <SCORE.SYSTEM.DIHEDRAL>
0

>  <SCORE.SYSTEM.SOLV>
0

>  <SCORE.SYSTEM.norm>
0

>  <SCORE.heavy>
23

>  <SCORE.norm>
-1.08169

>  <RMSD>
6.664

$$$$
1uui_lig
 OpenBabel11021811413D
libRbt.so/2013.1/901 2013/11/27
 23 24  0  0  0  0  0  0  0  0999 V2000
   -9.2996   -0.1794    0.4663 C   0  0  0  0  0  0  0  0  0  0  0  0
  -11.6572   -0.4854   -1.2069 O   0  0  0  0  0  0  0  0  0  0  0  0
  -12.3707    1.6185    4.0437 O   0  0  0  0  0  0  0  0  0  0  0  0
  -11.3139    0.5657   -2.1187 C   0  0  0  0  0  0  0  0  0  0  0  0
  -12.6552    0.5492    4.9491 C   0  0  0  0  0  0  0  0  0  0  0  0
   -8.6421    0.9939   -0.1973 N   0  0  0  0  0  0  0  0  0  0  0  0
  -12.5759    1.3556   -2.4688 C   0  0  0  0  0  0  0  0  0  0  0  0
   -7.9026    0.5776   -1.4199 C   0  0  0  0  0  0  0  0  0  0  0  0
   -7.7099    1.6788    0.7367 C   0  0  0  0  0  0  0  0  0  0  0  0
  -12.2370    2.4696   -3.4644 C   0  0  0  0  0  0  0  0  0  0  0  0
   -6.7843   -0.4290   -1.1008 C   0  0  0  0  0  0  0  0  0  0  0  0
   -6.6021    0.7317    1.2286 C   0  0  0  0  0  0  0  0  0  0  0  0
  -13.4824    3.1451   -3.8925 N   0  0  0  0  0  0  0  0  0  0  0  0
   -6.4747   -0.4815    0.3625 N   0  0  0  0  0  0  0  0  0  0  0  0
   -5.8173   -1.6147    0.8764 C   0  0  0  0  0  0  0  0  0  0  0  0
   -4.4589   -1.7177    0.8207 N   0  0  0  0  0  0  0  0  0  0  0  0
   -6.5283   -2.6914    1.3178 N   0  0  0  0  0  0  0  0  0  0  0  0
  -11.8333    0.0459    0.1095 C   0  0  0  0  0  0  0  0  0  0  0  0
  -10.7098    0.2131    0.9646 C   0  0  0  0  0  0  0  0  0  0  0  0
  -10.8904    0.7376    2.2746 C   0  0  0  0  0  0  0  0  0  0  0  0
  -12.1907    1.0929    2.7255 C   0  0  0  0  0  0  0  0  0  0  0  0
  -13.3104    0.9260    1.8689 C   0  0  0  0  0  0  0  0  0  0  0  0
  -13.1315    0.4016    0.5617 C   0  0  0  0  0  0  0  0  0  0  0  0
  2  4  1  0  0  0  0
  3  5  1  0  0  0  0
  4  7  1  0  0  0  0
  6  1  1  0  0  0  0
  7 10  1  0  0  0  0
  8  6  1  0  0  0  0
  8 11  1  0  0  0  0
  9  6  1  0  0  0  0
 10 13  1  0  0  0  0
 11 14  1  0  0  0  0
 12  9  1  0  0  0  0
 14 12  1  0  0  0  0
 14 15  1  0  0  0  0
 15 16  1  0  0  0  0
 15 17  1  0  0  0  0
 18  2  1  0  0  0  0
 18 23  2  0  0  0  0
 19  1  1  0  0  0  0
 19 18  1  0  0  0  0
 20 19  2  0  0  0  0
 21  3  1  0  0  0  0
 21 20  1  0  0  0  0
 22 21  2  0  0  0  0
 22 23  1  0  0  0  0
M  END
>  <CHROM.1>
-77.33351664,-178.93589061,-139.37493797,174.74807524,179.76516764,84.09024201
0.05770083,89.84322121,-85.47873315,90.10139954,-92.05801634,-9.90873176
0.41436398,0.28783688,0.22089823,-0.32459650,1.74673257

>  <Name>
1uui_lig

>  <RI>
0

>  <Rbt.Current_Directory>
/home/itssahil/PROJECTS/Mol_Feturizer/New_Systems/rnas/1uui

>  <Rbt.Executable>
rbdock ($Id: //depot/dev/client3/rdock/2013.1/src/exe/rbdock.cxx#4 $)

>  <Rbt.Library>
libRbt.so (2013.1, Build901 2013/11/27)

>  <Rbt.Parameter_File>
/export/apps/rDock/src/rDock_2013.1_src/data/scripts/dock_solv.prm

>  <Rbt.Receptor>
prm/pocket_docking_4.prm

>  <SCORE>
-25.9949

>  <SCORE.INTER>
-19.8123

>  <SCORE.INTER.CONST>
1

>  <SCORE.INTER.POLAR>
-3.39474

>  <SCORE.INTER.ROT>
10

>  <SCORE.INTER.SOLV>
5.29695

>  <SCORE.INTER.VDW>
-13.9247

>  <SCORE.INTER.norm>
-0.861403

>  <SCORE.INTRA>
-6.18258

>  <SCORE.INTRA.DIHEDRAL>
-5.26908

>  <SCORE.INTRA.DIHEDRAL.0>
23.4151

>  <SCORE.INTRA.POLAR>
0

>  <SCORE.INTRA.POLAR.0>
0

>  <SCORE.INTRA.REPUL>
0

>  <SCORE.INTRA.REPUL.0>
0

>  <SCORE.INTRA.SOLV>
0.0441922

>  <SCORE.INTRA.SOLV.lig_0>
-17.3568

>  <SCORE.INTRA.VDW>
-3.57014

>  <SCORE.INTRA.VDW.0>
1.0768

>  <SCORE.INTRA.norm>
-0.268808

>  <SCORE.RESTR>
0

>  <SCORE.RESTR.CAVITY>
0

>  <SCORE.RESTR.norm>
0

>  <SCORE.SYSTEM>
0

>  <SCORE.SYSTEM.CONST>
0

>  <SCORE.SYSTEM.DIHEDRAL>
0

>  <SCORE.SYSTEM.SOLV>
0

>  <SCORE.SYSTEM.norm>
0

>  <SCORE.heavy>
23

>  <SCORE.norm>
-1.13021

>  <RMSD>
6.672

$$$$
1uui_lig
 OpenBabel11021811413D
libRbt.so/2013.1/901 2013/11/27
 23 24  0  0  0  0  0  0  0  0999 V2000
  -10.3256    2.0236   -0.0867 C   0  0  0  0  0  0  0  0  0  0  0  0
   -8.8350    3.2113    2.1084 O   0  0  0  0  0  0  0  0  0  0  0  0
   -7.7302   -2.2186    0.7672 O   0  0  0  0  0  0  0  0  0  0  0  0
   -9.8429    3.2666    3.1257 C   0  0  0  0  0  0  0  0  0  0  0  0
   -6.3589   -2.3480    0.3839 C   0  0  0  0  0  0  0  0  0  0  0  0
   -9.7110    3.2553   -0.6821 N   0  0  0  0  0  0  0  0  0  0  0  0
   -9.7572    4.6155    3.8415 C   0  0  0  0  0  0  0  0  0  0  0  0
  -10.7545    4.1912   -1.1821 C   0  0  0  0  0  0  0  0  0  0  0  0
   -8.7868    2.9043   -1.7926 C   0  0  0  0  0  0  0  0  0  0  0  0
   -8.5956    4.6054    4.8403 C   0  0  0  0  0  0  0  0  0  0  0  0
  -11.6172    3.5546   -2.2851 C   0  0  0  0  0  0  0  0  0  0  0  0
   -9.5134    2.1473   -2.9174 C   0  0  0  0  0  0  0  0  0  0  0  0
   -8.6619    5.8174    5.6872 N   0  0  0  0  0  0  0  0  0  0  0  0
  -10.9985    2.3075   -2.8342 N   0  0  0  0  0  0  0  0  0  0  0  0
  -11.8184    1.3845   -3.5099 C   0  0  0  0  0  0  0  0  0  0  0  0
  -12.2808    1.6507   -4.7646 N   0  0  0  0  0  0  0  0  0  0  0  0
  -12.2781    0.2678   -2.8764 N   0  0  0  0  0  0  0  0  0  0  0  0
   -8.5567    1.8502    1.7676 C   0  0  0  0  0  0  0  0  0  0  0  0
   -9.2610    1.2262    0.7018 C   0  0  0  0  0  0  0  0  0  0  0  0
   -8.9841   -0.1291    0.3694 C   0  0  0  0  0  0  0  0  0  0  0  0
   -8.0060   -0.8555    1.1016 C   0  0  0  0  0  0  0  0  0  0  0  0
   -7.3035   -0.2291    2.1644 C   0  0  0  0  0  0  0  0  0  0  0  0
   -7.5798    1.1230    2.4978 C   0  0  0  0  0  0  0  0  0  0  0  0
  2  4  1  0  0  0  0
  3  5  1  0  0  0  0
  4  7  1  0  0  0  0
  6  1  1  0  0  0  0
  7 10  1  0  0  0  0
  8  6  1  0  0  0  0
  8 11  1  0  0  0  0
  9  6  1  0  0  0  0
 10 13  1  0  0  0  0
 11 14  1  0  0  0  0
 12  9  1  0  0  0  0
 14 12  1  0  0  0  0
 14 15  1  0  0  0  0
 15 16  1  0  0  0  0
 15 17  1  0  0  0  0
 18  2  1  0  0  0  0
 18 23  2  0  0  0  0
 19  1  1  0  0  0  0
 19 18  1  0  0  0  0
 20 19  2  0  0  0  0
 21  3  1  0  0  0  0
 21 20  1  0  0  0  0
 22 21  2  0  0  0  0
 22 23  1  0  0  0  0
M  END
>  <CHROM.1>
158.80582157,-78.15078917,-167.29496431,-170.37931718,-65.32625505,73.67932906
-118.27178302,138.70046489,92.07102497,57.58717664,119.44082693,-9.48609317
1.93580514,0.27515512,2.19457210,0.94784044,-2.37101550

>  <Name>
1uui_lig

>  <RI>
0

>  <Rbt.Current_Directory>
/home/itssahil/PROJECTS/Mol_Feturizer/New_Systems/rnas/1uui

>  <Rbt.Executable>
rbdock ($Id: //depot/dev/client3/rdock/2013.1/src/exe/rbdock.cxx#4 $)

>  <Rbt.Library>
libRbt.so (2013.1, Build901 2013/11/27)

>  <Rbt.Parameter_File>
/export/apps/rDock/src/rDock_2013.1_src/data/scripts/dock_solv.prm

>  <Rbt.Receptor>
prm/pocket_docking_7.prm

>  <SCORE>
-26.1592

>  <SCORE.INTER>
-17.7599

>  <SCORE.INTER.CONST>
1

>  <SCORE.INTER.POLAR>
-2.19127

>  <SCORE.INTER.ROT>
10

>  <SCORE.INTER.SOLV>
7.51113

>  <SCORE.INTER.VDW>
-17.3061

>  <SCORE.INTER.norm>
-0.772171

>  <SCORE.INTRA>
-8.39923

>  <SCORE.INTRA.DIHEDRAL>
-6.67331

>  <SCORE.INTRA.DIHEDRAL.0>
23.4151

>  <SCORE.INTRA.POLAR>
-0.599941

>  <SCORE.INTRA.POLAR.0>
0

>  <SCORE.INTRA.REPUL>
0

>  <SCORE.INTRA.REPUL.0>
0

>  <SCORE.INTRA.SOLV>
0.262763

>  <SCORE.INTRA.SOLV.lig_0>
-17.3568

>  <SCORE.INTRA.VDW>
-3.15416

>  <SCORE.INTRA.VDW.0>
1.0768

>  <SCORE.INTRA.norm>
-0.365184

>  <SCORE.RESTR>
0

>  <SCORE.RESTR.CAVITY>
0

>  <SCORE.RESTR.norm>
0

>  <SCORE.SYSTEM>
0

>  <SCORE.SYSTEM.CONST>
0

>  <SCORE.SYSTEM.DIHEDRAL>
0

>  <SCORE.SYSTEM.SOLV>
0

>  <SCORE.SYSTEM.norm>
0

>  <SCORE.heavy>
23

>  <SCORE.norm>
-1.13735

>  <RMSD>
6.684

$$$$
1uui_lig
 OpenBabel11021811413D
libRbt.so/2013.1/901 2013/11/27
 23 24  0  0  0  0  0  0  0  0999 V2000
   -6.3707    1.4839    3.2527 C   0  0  0  0  0  0  0  0  0  0  0  0
   -5.2475   -1.1975    3.2468 O   0  0  0  0  0  0  0  0  0  0  0  0
   -9.7879   -0.2031   -0.0546 O   0  0  0  0  0  0  0  0  0  0  0  0
   -4.0425   -0.8757    2.5409 C   0  0  0  0  0  0  0  0  0  0  0  0
   -9.4361    0.7188   -1.0893 C   0  0  0  0  0  0  0  0  0  0  0  0
   -6.3475    2.7679    2.4779 N   0  0  0  0  0  0  0  0  0  0  0  0
   -3.7501   -1.9786    1.5224 C   0  0  0  0  0  0  0  0  0  0  0  0
   -5.5360    2.6350    1.2376 C   0  0  0  0  0  0  0  0  0  0  0  0
   -5.8085    3.8785    3.3064 C   0  0  0  0  0  0  0  0  0  0  0  0
   -3.0964   -3.1757    2.2199 C   0  0  0  0  0  0  0  0  0  0  0  0
   -4.0707    2.2814    1.5442 C   0  0  0  0  0  0  0  0  0  0  0  0
   -4.3749    3.5873    3.7821 C   0  0  0  0  0  0  0  0  0  0  0  0
   -2.9902   -4.3042    1.2683 N   0  0  0  0  0  0  0  0  0  0  0  0
   -3.7287    2.4988    2.9848 N   0  0  0  0  0  0  0  0  0  0  0  0
   -2.6083    1.8387    3.5229 C   0  0  0  0  0  0  0  0  0  0  0  0
   -1.4599    1.7115    2.7990 N   0  0  0  0  0  0  0  0  0  0  0  0
   -2.6889    1.1960    4.7229 N   0  0  0  0  0  0  0  0  0  0  0  0
   -6.3844   -0.9446    2.4163 C   0  0  0  0  0  0  0  0  0  0  0  0
   -6.9688    0.3511    2.3866 C   0  0  0  0  0  0  0  0  0  0  0  0
   -8.1021    0.5966    1.5625 C   0  0  0  0  0  0  0  0  0  0  0  0
   -8.6472   -0.4513    0.7719 C   0  0  0  0  0  0  0  0  0  0  0  0
   -8.0607   -1.7437    0.8028 C   0  0  0  0  0  0  0  0  0  0  0  0
   -6.9303   -1.9903    1.6257 C   0  0  0  0  0  0  0  0  0  0  0  0
  2  4  1  0  0  0  0
  3  5  1  0  0  0  0
  4  7  1  0  0  0  0
  6  1  1  0  0  0  0
  7 10  1  0  0  0  0
  8  6  1  0  0  0  0
  8 11  1  0  0  0  0
  9  6  1  0  0  0  0
 10 13  1  0  0  0  0
 11 14  1  0  0  0  0
 12  9  1  0  0  0  0
 14 12  1  0  0  0  0
 14 15  1  0  0  0  0
 15 16  1  0  0  0  0
 15 17  1  0  0  0  0
 18  2  1  0  0  0  0
 18 23  2  0  0  0  0
 19  1  1  0  0  0  0
 19 18  1  0  0  0  0
 20 19  2  0  0  0  0
 21  3  1  0  0  0  0
 21 20  1  0  0  0  0
 22 21  2  0  0  0  0
 22 23  1  0  0  0  0
M  END
>  <CHROM.1>
-75.70603436,-80.10504634,-59.36356035,172.19440213,-86.38086493,39.80558242
100.36976516,128.80723934,-87.13895680,138.87483097,65.86769657,-5.42630351
0.36132503,2.12695764,2.75176631,0.38461923,-2.89888287

>  <Name>
1uui_lig

>  <RI>
0

>  <Rbt.Current_Directory>
/home/itssahil/PROJECTS/Mol_Feturizer/New_Systems/rnas/1uui

>  <Rbt.Executable>
rbdock ($Id: //depot/dev/client3/rdock/2013.1/src/exe/rbdock.cxx#4 $)

>  <Rbt.Library>
libRbt.so (2013.1, Build901 2013/11/27)

>  <Rbt.Parameter_File>
/export/apps/rDock/src/rDock_2013.1_src/data/scripts/dock_solv.prm

>  <Rbt.Receptor>
prm/pocket_docking_7.prm

>  <SCORE>
-27.372

>  <SCORE.INTER>
-22.0996

>  <SCORE.INTER.CONST>
1

>  <SCORE.INTER.POLAR>
-2.41737

>  <SCORE.INTER.ROT>
10

>  <SCORE.INTER.SOLV>
6.99571

>  <SCORE.INTER.VDW>
-19.2737

>  <SCORE.INTER.norm>
-0.960851

>  <SCORE.INTRA>
-5.27241

>  <SCORE.INTRA.DIHEDRAL>
-6.14734

>  <SCORE.INTRA.DIHEDRAL.0>
23.4151

>  <SCORE.INTRA.POLAR>
0

>  <SCORE.INTRA.POLAR.0>
0

>  <SCORE.INTRA.REPUL>
0

>  <SCORE.INTRA.REPUL.0>
0

>  <SCORE.INTRA.SOLV>
0.938585

>  <SCORE.INTRA.SOLV.lig_0>
-17.3568

>  <SCORE.INTRA.VDW>
-2.66804

>  <SCORE.INTRA.VDW.0>
1.0768

>  <SCORE.INTRA.norm>
-0.229235

>  <SCORE.RESTR>
0

>  <SCORE.RESTR.CAVITY>
0

>  <SCORE.RESTR.norm>
0

>  <SCORE.SYSTEM>
0

>  <SCORE.SYSTEM.CONST>
0

>  <SCORE.SYSTEM.DIHEDRAL>
0

>  <SCORE.SYSTEM.SOLV>
0

>  <SCORE.SYSTEM.norm>
0

>  <SCORE.heavy>
23

>  <SCORE.norm>
-1.19009

>  <RMSD>
6.687

$$$$
1uui_lig
 OpenBabel11021811413D
libRbt.so/2013.1/901 2013/11/27
 23 24  0  0  0  0  0  0  0  0999 V2000
  -10.4536    0.9860    0.7350 C   0  0  0  0  0  0  0  0  0  0  0  0
  -12.4364    1.4158   -1.3471 O   0  0  0  0  0  0  0  0  0  0  0  0
  -13.9715   -1.6614    3.2002 O   0  0  0  0  0  0  0  0  0  0  0  0
  -11.5168    0.6694   -2.1540 C   0  0  0  0  0  0  0  0  0  0  0  0
  -14.2694   -0.7880    4.2922 C   0  0  0  0  0  0  0  0  0  0  0  0
  -10.3128    2.1833    1.6273 N   0  0  0  0  0  0  0  0  0  0  0  0
  -10.9904    1.5686   -3.2736 C   0  0  0  0  0  0  0  0  0  0  0  0
  -11.0525    3.3533    1.0810 C   0  0  0  0  0  0  0  0  0  0  0  0
   -8.8820    2.5432    1.8115 C   0  0  0  0  0  0  0  0  0  0  0  0
  -12.0150    1.6439   -4.4101 C   0  0  0  0  0  0  0  0  0  0  0  0
  -10.5250    3.7726   -0.3017 C   0  0  0  0  0  0  0  0  0  0  0  0
   -8.2023    2.8700    0.4708 C   0  0  0  0  0  0  0  0  0  0  0  0
  -13.1080    2.5664   -4.0294 N   0  0  0  0  0  0  0  0  0  0  0  0
   -9.1978    3.1534   -0.6095 N   0  0  0  0  0  0  0  0  0  0  0  0
   -8.7829    3.0705   -1.9517 C   0  0  0  0  0  0  0  0  0  0  0  0
   -8.0270    2.0215   -2.3842 N   0  0  0  0  0  0  0  0  0  0  0  0
   -9.0120    4.1002   -2.8159 N   0  0  0  0  0  0  0  0  0  0  0  0
  -12.8205    0.6473   -0.2034 C   0  0  0  0  0  0  0  0  0  0  0  0
  -11.8847    0.4099    0.8403 C   0  0  0  0  0  0  0  0  0  0  0  0
  -12.2699   -0.3588    1.9737 C   0  0  0  0  0  0  0  0  0  0  0  0
  -13.5866   -0.8872    2.0607 C   0  0  0  0  0  0  0  0  0  0  0  0
  -14.5190   -0.6474    1.0175 C   0  0  0  0  0  0  0  0  0  0  0  0
  -14.1355    0.1188   -0.1146 C   0  0  0  0  0  0  0  0  0  0  0  0
  2  4  1  0  0  0  0
  3  5  1  0  0  0  0
  4  7  1  0  0  0  0
  6  1  1  0  0  0  0
  7 10  1  0  0  0  0
  8  6  1  0  0  0  0
  8 11  1  0  0  0  0
  9  6  1  0  0  0  0
 10 13  1  0  0  0  0
 11 14  1  0  0  0  0
 12  9  1  0  0  0  0
 14 12  1  0  0  0  0
 14 15  1  0  0  0  0
 15 16  1  0  0  0  0
 15 17  1  0  0  0  0
 18  2  1  0  0  0  0
 18 23  2  0  0  0  0
 19  1  1  0  0  0  0
 19 18  1  0  0  0  0
 20 19  2  0  0  0  0
 21  3  1  0  0  0  0
 21 20  1  0  0  0  0
 22 21  2  0  0  0  0
 22 23  1  0  0  0  0
M  END
>  <CHROM.1>
-173.18028070,-80.35707114,-72.25513126,77.60871773,-33.62270168,-146.63172201
38.70264139,43.01376208,70.82538872,103.80422063,79.13522614,-11.36251775
1.46870559,-0.25160872,-2.28166504,-0.54366437,-1.34415379

>  <Name>
1uui_lig

>  <RI>
0

>  <Rbt.Current_Directory>
/home/itssahil/PROJECTS/Mol_Feturizer/New_Systems/rnas/1uui

>  <Rbt.Executable>
rbdock ($Id: //depot/dev/client3/rdock/2013.1/src/exe/rbdock.cxx#4 $)

>  <Rbt.Library>
libRbt.so (2013.1, Build901 2013/11/27)

>  <Rbt.Parameter_File>
/export/apps/rDock/src/rDock_2013.1_src/data/scripts/dock_solv.prm

>  <Rbt.Receptor>
prm/pocket_docking_5.prm

>  <SCORE>
-21.6898

>  <SCORE.INTER>
-13.6998

>  <SCORE.INTER.CONST>
1

>  <SCORE.INTER.POLAR>
-2.81443

>  <SCORE.INTER.ROT>
10

>  <SCORE.INTER.SOLV>
4.36611

>  <SCORE.INTER.VDW>
-11.4738

>  <SCORE.INTER.norm>
-0.595643

>  <SCORE.INTRA>
-7.98996

>  <SCORE.INTRA.DIHEDRAL>
-5.46327

>  <SCORE.INTRA.DIHEDRAL.0>
23.4151

>  <SCORE.INTRA.POLAR>
-0.716958

>  <SCORE.INTRA.POLAR.0>
0

>  <SCORE.INTRA.REPUL>
0

>  <SCORE.INTRA.REPUL.0>
0

>  <SCORE.INTRA.SOLV>
1.80698

>  <SCORE.INTRA.SOLV.lig_0>
-17.3568

>  <SCORE.INTRA.VDW>
-3.72416

>  <SCORE.INTRA.VDW.0>
1.0768

>  <SCORE.INTRA.norm>
-0.347389

>  <SCORE.RESTR>
0

>  <SCORE.RESTR.CAVITY>
0

>  <SCORE.RESTR.norm>
0

>  <SCORE.SYSTEM>
0

>  <SCORE.SYSTEM.CONST>
0

>  <SCORE.SYSTEM.DIHEDRAL>
0

>  <SCORE.SYSTEM.SOLV>
0

>  <SCORE.SYSTEM.norm>
0

>  <SCORE.heavy>
23

>  <SCORE.norm>
-0.943033

>  <RMSD>
6.692

$$$$
1uui_lig
 OpenBabel11021811413D
libRbt.so/2013.1/901 2013/11/27
 23 24  0  0  0  0  0  0  0  0999 V2000
   -9.3460   -0.0435   -0.8677 C   0  0  0  0  0  0  0  0  0  0  0  0
   -7.6005    0.2685   -3.1715 O   0  0  0  0  0  0  0  0  0  0  0  0
   -5.7908   -3.0245    1.1162 O   0  0  0  0  0  0  0  0  0  0  0  0
   -6.7241    0.1317   -4.2972 C   0  0  0  0  0  0  0  0  0  0  0  0
   -4.8781   -2.2845    1.9307 C   0  0  0  0  0  0  0  0  0  0  0  0
   -9.6766    0.2817    0.5587 N   0  0  0  0  0  0  0  0  0  0  0  0
   -5.9418    1.4327   -4.4826 C   0  0  0  0  0  0  0  0  0  0  0  0
  -11.1216    0.6000    0.7184 C   0  0  0  0  0  0  0  0  0  0  0  0
   -8.8603    1.4248    1.0459 C   0  0  0  0  0  0  0  0  0  0  0  0
   -6.9016    2.5767   -4.8250 C   0  0  0  0  0  0  0  0  0  0  0  0
  -11.5369    1.8225   -0.1176 C   0  0  0  0  0  0  0  0  0  0  0  0
   -9.0979    2.6907    0.2050 C   0  0  0  0  0  0  0  0  0  0  0  0
   -7.3945    2.4098   -6.2105 N   0  0  0  0  0  0  0  0  0  0  0  0
  -10.3544    2.6013   -0.6022 N   0  0  0  0  0  0  0  0  0  0  0  0
  -10.5146    3.4622   -1.7039 C   0  0  0  0  0  0  0  0  0  0  0  0
   -9.6905    3.3701   -2.7862 N   0  0  0  0  0  0  0  0  0  0  0  0
  -11.4068    4.4925   -1.6582 N   0  0  0  0  0  0  0  0  0  0  0  0
   -7.1502   -0.5603   -2.0961 C   0  0  0  0  0  0  0  0  0  0  0  0
   -7.9690   -0.7424   -0.9482 C   0  0  0  0  0  0  0  0  0  0  0  0
   -7.5149   -1.5640    0.1207 C   0  0  0  0  0  0  0  0  0  0  0  0
   -6.2465   -2.2002    0.0396 C   0  0  0  0  0  0  0  0  0  0  0  0
   -5.4318   -2.0175   -1.1085 C   0  0  0  0  0  0  0  0  0  0  0  0
   -5.8834   -1.1968   -2.1754 C   0  0  0  0  0  0  0  0  0  0  0  0
  2  4  1  0  0  0  0
  3  5  1  0  0  0  0
  4  7  1  0  0  0  0
  6  1  1  0  0  0  0
  7 10  1  0  0  0  0
  8  6  1  0  0  0  0
  8 11  1  0  0  0  0
  9  6  1  0  0  0  0
 10 13  1  0  0  0  0
 11 14  1  0  0  0  0
 12  9  1  0  0  0  0
 14 12  1  0  0  0  0
 14 15  1  0  0  0  0
 15 16  1  0  0  0  0
 15 17  1  0  0  0  0
 18  2  1  0  0  0  0
 18 23  2  0  0  0  0
 19  1  1  0  0  0  0
 19 18  1  0  0  0  0
 20 19  2  0  0  0  0
 21  3  1  0  0  0  0
 21 20  1  0  0  0  0
 22 21  2  0  0  0  0
 22 23  1  0  0  0  0
M  END
>  <CHROM.1>
-110.50879312,-63.91040949,-164.23970181,-72.47050202,166.64171864,-126.98720582
144.61219717,30.01285776,-170.65536518,-148.69273822,-99.78820564,-8.16095012
0.67278471,-1.40880726,0.76542227,-0.67671524,2.11056926

>  <Name>
1uui_lig

>  <RI>
0

>  <Rbt.Current_Directory>
/home/itssahil/PROJECTS/Mol_Feturizer/New_Systems/rnas/1uui

>  <Rbt.Executable>
rbdock ($Id: //depot/dev/client3/rdock/2013.1/src/exe/rbdock.cxx#4 $)

>  <Rbt.Library>
libRbt.so (2013.1, Build901 2013/11/27)

>  <Rbt.Parameter_File>
/export/apps/rDock/src/rDock_2013.1_src/data/scripts/dock_solv.prm

>  <Rbt.Receptor>
prm/pocket_docking_8.prm

>  <SCORE>
-21.9106

>  <SCORE.INTER>
-20.7912

>  <SCORE.INTER.CONST>
1

>  <SCORE.INTER.POLAR>
-2.75928

>  <SCORE.INTER.ROT>
10

>  <SCORE.INTER.SOLV>
5.45572

>  <SCORE.INTER.VDW>
-16.7485

>  <SCORE.INTER.norm>
-0.903967

>  <SCORE.INTRA>
-1.11934

>  <SCORE.INTRA.DIHEDRAL>
-5.9781

>  <SCORE.INTRA.DIHEDRAL.0>
23.4151

>  <SCORE.INTRA.POLAR>
0

>  <SCORE.INTRA.POLAR.0>
0

>  <SCORE.INTRA.REPUL>
0.020226

>  <SCORE.INTRA.REPUL.0>
0

>  <SCORE.INTRA.SOLV>
0.620247

>  <SCORE.INTRA.SOLV.lig_0>
-17.3568

>  <SCORE.INTRA.VDW>
1.45845

>  <SCORE.INTRA.VDW.0>
1.0768

>  <SCORE.INTRA.norm>
-0.0486672

>  <SCORE.RESTR>
0

>  <SCORE.RESTR.CAVITY>
0

>  <SCORE.RESTR.norm>
0

>  <SCORE.SYSTEM>
0

>  <SCORE.SYSTEM.CONST>
0

>  <SCORE.SYSTEM.DIHEDRAL>
0

>  <SCORE.SYSTEM.SOLV>
0

>  <SCORE.SYSTEM.norm>
0

>  <SCORE.heavy>
23

>  <SCORE.norm>
-0.952634

>  <RMSD>
6.692

$$$$
1uui_lig
 OpenBabel11021811413D
libRbt.so/2013.1/901 2013/11/27
 23 24  0  0  0  0  0  0  0  0999 V2000
  -10.1575    0.5706    1.4987 C   0  0  0  0  0  0  0  0  0  0  0  0
  -12.1297    1.8054   -0.2439 O   0  0  0  0  0  0  0  0  0  0  0  0
  -13.9878   -1.8634    3.7047 O   0  0  0  0  0  0  0  0  0  0  0  0
  -12.8030    1.5658   -1.4862 C   0  0  0  0  0  0  0  0  0  0  0  0
  -14.4419   -1.1429    4.8530 C   0  0  0  0  0  0  0  0  0  0  0  0
   -9.8432    1.0445    0.1109 N   0  0  0  0  0  0  0  0  0  0  0  0
  -12.8681    2.8719   -2.2794 C   0  0  0  0  0  0  0  0  0  0  0  0
   -9.8352   -0.0864   -0.8565 C   0  0  0  0  0  0  0  0  0  0  0  0
   -8.5296    1.7398    0.0717 C   0  0  0  0  0  0  0  0  0  0  0  0
  -13.9334    2.7665   -3.3753 C   0  0  0  0  0  0  0  0  0  0  0  0
   -8.7716   -1.1393   -0.5014 C   0  0  0  0  0  0  0  0  0  0  0  0
   -7.3858    0.8174    0.5267 C   0  0  0  0  0  0  0  0  0  0  0  0
  -14.1088    4.0861   -4.0221 N   0  0  0  0  0  0  0  0  0  0  0  0
   -7.7812   -0.6251    0.4957 N   0  0  0  0  0  0  0  0  0  0  0  0
   -7.0283   -1.5501    1.2427 C   0  0  0  0  0  0  0  0  0  0  0  0
   -6.9726   -1.4673    2.6025 N   0  0  0  0  0  0  0  0  0  0  0  0
   -6.2319   -2.4647    0.6190 N   0  0  0  0  0  0  0  0  0  0  0  0
  -12.5940    0.8875    0.7501 C   0  0  0  0  0  0  0  0  0  0  0  0
  -11.6666    0.2582    1.6249 C   0  0  0  0  0  0  0  0  0  0  0  0
  -12.1326   -0.6575    2.6089 C   0  0  0  0  0  0  0  0  0  0  0  0
  -13.5213   -0.9411    2.7158 C   0  0  0  0  0  0  0  0  0  0  0  0
  -14.4449   -0.3101    1.8417 C   0  0  0  0  0  0  0  0  0  0  0  0
  -13.9810    0.6030    0.8585 C   0  0  0  0  0  0  0  0  0  0  0  0
  2  4  1  0  0  0  0
  3  5  1  0  0  0  0
  4  7  1  0  0  0  0
  6  1  1  0  0  0  0
  7 10  1  0  0  0  0
  8  6  1  0  0  0  0
  8 11  1  0  0  0  0
  9  6  1  0  0  0  0
 10 13  1  0  0  0  0
 11 14  1  0  0  0  0
 12  9  1  0  0  0  0
 14 12  1  0  0  0  0
 14 15  1  0  0  0  0
 15 16  1  0  0  0  0
 15 17  1  0  0  0  0
 18  2  1  0  0  0  0
 18 23  2  0  0  0  0
 19  1  1  0  0  0  0
 19 18  1  0  0  0  0
 20 19  2  0  0  0  0
 21  3  1  0  0  0  0
 21 20  1  0  0  0  0
 22 21  2  0  0  0  0
 22 23  1  0  0  0  0
M  END
>  <CHROM.1>
151.81213303,-162.39301392,-75.45192836,172.85260998,-175.35879116,-128.23639181
-18.50250073,83.53453909,136.94545680,-24.16516089,97.28257474,-11.05968765
0.31243095,0.54230746,0.56803391,-0.19574473,2.16921113

>  <Name>
1uui_lig

>  <RI>
0

>  <Rbt.Current_Directory>
/home/itssahil/PROJECTS/Mol_Feturizer/New_Systems/rnas/1uui

>  <Rbt.Executable>
rbdock ($Id: //depot/dev/client3/rdock/2013.1/src/exe/rbdock.cxx#4 $)

>  <Rbt.Library>
libRbt.so (2013.1, Build901 2013/11/27)

>  <Rbt.Parameter_File>
/export/apps/rDock/src/rDock_2013.1_src/data/scripts/dock_solv.prm

>  <Rbt.Receptor>
prm/pocket_docking_4.prm

>  <SCORE>
-26.9433

>  <SCORE.INTER>
-21.1254

>  <SCORE.INTER.CONST>
1

>  <SCORE.INTER.POLAR>
-3.78793

>  <SCORE.INTER.ROT>
10

>  <SCORE.INTER.SOLV>
7.38642

>  <SCORE.INTER.VDW>
-14.186

>  <SCORE.INTER.norm>
-0.918496

>  <SCORE.INTRA>
-5.82392

>  <SCORE.INTRA.DIHEDRAL>
-6.90846

>  <SCORE.INTRA.DIHEDRAL.0>
23.4151

>  <SCORE.INTRA.POLAR>
-0.588597

>  <SCORE.INTRA.POLAR.0>
0

>  <SCORE.INTRA.REPUL>
0

>  <SCORE.INTRA.REPUL.0>
0

>  <SCORE.INTRA.SOLV>
0.363095

>  <SCORE.INTRA.SOLV.lig_0>
-17.3568

>  <SCORE.INTRA.VDW>
-0.550003

>  <SCORE.INTRA.VDW.0>
1.0768

>  <SCORE.INTRA.norm>
-0.253214

>  <SCORE.RESTR>
0.0059943

>  <SCORE.RESTR.CAVITY>
0.0059943

>  <SCORE.RESTR.norm>
0.000260622

>  <SCORE.SYSTEM>
0

>  <SCORE.SYSTEM.CONST>
0

>  <SCORE.SYSTEM.DIHEDRAL>
0

>  <SCORE.SYSTEM.SOLV>
0

>  <SCORE.SYSTEM.norm>
0

>  <SCORE.heavy>
23

>  <SCORE.norm>
-1.17145

>  <RMSD>
6.699

$$$$
1uui_lig
 OpenBabel11021811413D
libRbt.so/2013.1/901 2013/11/27
 23 24  0  0  0  0  0  0  0  0999 V2000
  -12.3230    0.9301    0.1195 C   0  0  0  0  0  0  0  0  0  0  0  0
  -11.7407    0.8498    2.9665 O   0  0  0  0  0  0  0  0  0  0  0  0
  -16.0537   -2.3411    1.0378 O   0  0  0  0  0  0  0  0  0  0  0  0
  -12.2252    2.1422    3.3524 C   0  0  0  0  0  0  0  0  0  0  0  0
  -15.6910   -3.7228    1.0958 C   0  0  0  0  0  0  0  0  0  0  0  0
  -11.4132    0.0696   -0.7060 N   0  0  0  0  0  0  0  0  0  0  0  0
  -11.0362    3.0361    3.7080 C   0  0  0  0  0  0  0  0  0  0  0  0
  -10.2303    0.8369   -1.1823 C   0  0  0  0  0  0  0  0  0  0  0  0
  -12.1363   -0.5016   -1.8727 C   0  0  0  0  0  0  0  0  0  0  0  0
  -11.5331    4.3490    4.3216 C   0  0  0  0  0  0  0  0  0  0  0  0
  -10.6355    2.0252   -2.0710 C   0  0  0  0  0  0  0  0  0  0  0  0
  -12.7012    0.6006   -2.7850 C   0  0  0  0  0  0  0  0  0  0  0  0
  -10.4380    5.3445    4.3114 N   0  0  0  0  0  0  0  0  0  0  0  0
  -12.0565    1.9263   -2.5298 N   0  0  0  0  0  0  0  0  0  0  0  0
  -12.7108    3.0931   -2.9669 C   0  0  0  0  0  0  0  0  0  0  0  0
  -13.3646    3.1193   -4.1631 N   0  0  0  0  0  0  0  0  0  0  0  0
  -12.5930    4.2596   -2.2705 N   0  0  0  0  0  0  0  0  0  0  0  0
  -12.8199    0.0471    2.4797 C   0  0  0  0  0  0  0  0  0  0  0  0
  -13.1426    0.0541    1.0952 C   0  0  0  0  0  0  0  0  0  0  0  0
  -14.2197   -0.7424    0.6163 C   0  0  0  0  0  0  0  0  0  0  0  0
  -14.9698   -1.5423    1.5207 C   0  0  0  0  0  0  0  0  0  0  0  0
  -14.6443   -1.5481    2.9025 C   0  0  0  0  0  0  0  0  0  0  0  0
  -13.5703   -0.7528    3.3817 C   0  0  0  0  0  0  0  0  0  0  0  0
  2  4  1  0  0  0  0
  3  5  1  0  0  0  0
  4  7  1  0  0  0  0
  6  1  1  0  0  0  0
  7 10  1  0  0  0  0
  8  6  1  0  0  0  0
  8 11  1  0  0  0  0
  9  6  1  0  0  0  0
 10 13  1  0  0  0  0
 11 14  1  0  0  0  0
 12  9  1  0  0  0  0
 14 12  1  0  0  0  0
 14 15  1  0  0  0  0
 15 16  1  0  0  0  0
 15 17  1  0  0  0  0
 18  2  1  0  0  0  0
 18 23  2  0  0  0  0
 19  1  1  0  0  0  0
 19 18  1  0  0  0  0
 20 19  2  0  0  0  0
 21  3  1  0  0  0  0
 21 20  1  0  0  0  0
 22 21  2  0  0  0  0
 22 23  1  0  0  0  0
M  END
>  <CHROM.1>
-173.22288601,-171.57330125,-154.62063537,-164.25991067,-176.31307066,129.26442878
44.39053286,-19.45114601,90.68249248,105.99679602,109.24005772,-12.67566139
1.01323219,0.51574467,0.74551541,-1.02719344,-1.52992311

>  <Name>
1uui_lig

>  <RI>
0

>  <Rbt.Current_Directory>
/home/itssahil/PROJECTS/Mol_Feturizer/New_Systems/rnas/1uui

>  <Rbt.Executable>
rbdock ($Id: //depot/dev/client3/rdock/2013.1/src/exe/rbdock.cxx#4 $)

>  <Rbt.Library>
libRbt.so (2013.1, Build901 2013/11/27)

>  <Rbt.Parameter_File>
/export/apps/rDock/src/rDock_2013.1_src/data/scripts/dock_solv.prm

>  <Rbt.Receptor>
prm/pocket_docking_6.prm

>  <SCORE>
-20.2952

>  <SCORE.INTER>
-13.9785

>  <SCORE.INTER.CONST>
1

>  <SCORE.INTER.POLAR>
-2.37787

>  <SCORE.INTER.ROT>
10

>  <SCORE.INTER.SOLV>
4.00105

>  <SCORE.INTER.VDW>
-12.9931

>  <SCORE.INTER.norm>
-0.60776

>  <SCORE.INTRA>
-6.31672

>  <SCORE.INTRA.DIHEDRAL>
-7.4095

>  <SCORE.INTRA.DIHEDRAL.0>
23.4151

>  <SCORE.INTRA.POLAR>
0

>  <SCORE.INTRA.POLAR.0>
0

>  <SCORE.INTRA.REPUL>
0

>  <SCORE.INTRA.REPUL.0>
0

>  <SCORE.INTRA.SOLV>
-0.0320574

>  <SCORE.INTRA.SOLV.lig_0>
-17.3568

>  <SCORE.INTRA.VDW>
-2.59594

>  <SCORE.INTRA.VDW.0>
1.0768

>  <SCORE.INTRA.norm>
-0.27464

>  <SCORE.RESTR>
0

>  <SCORE.RESTR.CAVITY>
0

>  <SCORE.RESTR.norm>
0

>  <SCORE.SYSTEM>
0

>  <SCORE.SYSTEM.CONST>
0

>  <SCORE.SYSTEM.DIHEDRAL>
0

>  <SCORE.SYSTEM.SOLV>
0

>  <SCORE.SYSTEM.norm>
0

>  <SCORE.heavy>
23

>  <SCORE.norm>
-0.8824

>  <RMSD>
6.702

$$$$
1uui_lig
 OpenBabel11021811413D
libRbt.so/2013.1/901 2013/11/27
 23 24  0  0  0  0  0  0  0  0999 V2000
   -9.4971    0.0238    0.7333 C   0  0  0  0  0  0  0  0  0  0  0  0
  -11.5695   -0.0869   -1.3025 O   0  0  0  0  0  0  0  0  0  0  0  0
  -13.1923    0.6278    4.1160 O   0  0  0  0  0  0  0  0  0  0  0  0
  -12.0178    1.0156   -2.1009 C   0  0  0  0  0  0  0  0  0  0  0  0
  -13.4830   -0.6460    4.6966 C   0  0  0  0  0  0  0  0  0  0  0  0
   -8.8015    1.3369    0.9370 N   0  0  0  0  0  0  0  0  0  0  0  0
  -12.9728    0.4976   -3.1773 C   0  0  0  0  0  0  0  0  0  0  0  0
   -7.8874    1.6446   -0.1963 C   0  0  0  0  0  0  0  0  0  0  0  0
   -8.0320    1.3386    2.2092 C   0  0  0  0  0  0  0  0  0  0  0  0
  -13.9958   -0.4575   -2.5541 C   0  0  0  0  0  0  0  0  0  0  0  0
   -6.7846    0.5834   -0.3501 C   0  0  0  0  0  0  0  0  0  0  0  0
   -6.9654    0.2303    2.2284 C   0  0  0  0  0  0  0  0  0  0  0  0
  -15.1480   -0.6132   -3.4699 N   0  0  0  0  0  0  0  0  0  0  0  0
   -6.6747   -0.2935    0.8576 N   0  0  0  0  0  0  0  0  0  0  0  0
   -6.0499   -1.5481    0.7301 C   0  0  0  0  0  0  0  0  0  0  0  0
   -6.5953   -2.6597    1.3007 N   0  0  0  0  0  0  0  0  0  0  0  0
   -4.8203   -1.6576    0.1506 N   0  0  0  0  0  0  0  0  0  0  0  0
  -11.9741    0.0962    0.0573 C   0  0  0  0  0  0  0  0  0  0  0  0
  -10.9965    0.1559    1.0878 C   0  0  0  0  0  0  0  0  0  0  0  0
  -11.4039    0.3336    2.4392 C   0  0  0  0  0  0  0  0  0  0  0  0
  -12.7845    0.4510    2.7564 C   0  0  0  0  0  0  0  0  0  0  0  0
  -13.7582    0.3923    1.7250 C   0  0  0  0  0  0  0  0  0  0  0  0
  -13.3528    0.2138    0.3761 C   0  0  0  0  0  0  0  0  0  0  0  0
  2  4  1  0  0  0  0
  3  5  1  0  0  0  0
  4  7  1  0  0  0  0
  6  1  1  0  0  0  0
  7 10  1  0  0  0  0
  8  6  1  0  0  0  0
  8 11  1  0  0  0  0
  9  6  1  0  0  0  0
 10 13  1  0  0  0  0
 11 14  1  0  0  0  0
 12  9  1  0  0  0  0
 14 12  1  0  0  0  0
 14 15  1  0  0  0  0
 15 16  1  0  0  0  0
 15 17  1  0  0  0  0
 18  2  1  0  0  0  0
 18 23  2  0  0  0  0
 19  1  1  0  0  0  0
 19 18  1  0  0  0  0
 20 19  2  0  0  0  0
 21  3  1  0  0  0  0
 21 20  1  0  0  0  0
 22 21  2  0  0  0  0
 22 23  1  0  0  0  0
M  END
>  <CHROM.1>
-118.51229010,46.70071027,-135.84407830,162.13819251,52.89420141,-135.78954602
122.43864577,109.55356538,-120.68850631,110.34240164,-93.35479845,-10.36189758
0.01214660,0.54001177,0.19356798,-0.09504474,1.52796965

>  <Name>
1uui_lig

>  <RI>
0

>  <Rbt.Current_Directory>
/home/itssahil/PROJECTS/Mol_Feturizer/New_Systems/rnas/1uui

>  <Rbt.Executable>
rbdock ($Id: //depot/dev/client3/rdock/2013.1/src/exe/rbdock.cxx#4 $)

>  <Rbt.Library>
libRbt.so (2013.1, Build901 2013/11/27)

>  <Rbt.Parameter_File>
/export/apps/rDock/src/rDock_2013.1_src/data/scripts/dock_solv.prm

>  <Rbt.Receptor>
prm/pocket_docking_5.prm

>  <SCORE>
-26.5164

>  <SCORE.INTER>
-26.0269

>  <SCORE.INTER.CONST>
1

>  <SCORE.INTER.POLAR>
-3.5364

>  <SCORE.INTER.ROT>
10

>  <SCORE.INTER.SOLV>
6.63502

>  <SCORE.INTER.VDW>
-18.0416

>  <SCORE.INTER.norm>
-1.13161

>  <SCORE.INTRA>
-1.0046

>  <SCORE.INTRA.DIHEDRAL>
1.31526

>  <SCORE.INTRA.DIHEDRAL.0>
23.4151

>  <SCORE.INTRA.POLAR>
0

>  <SCORE.INTRA.POLAR.0>
0

>  <SCORE.INTRA.REPUL>
0

>  <SCORE.INTRA.REPUL.0>
0

>  <SCORE.INTRA.SOLV>
0.0602498

>  <SCORE.INTRA.SOLV.lig_0>
-17.3568

>  <SCORE.INTRA.VDW>
-1.69235

>  <SCORE.INTRA.VDW.0>
1.0768

>  <SCORE.INTRA.norm>
-0.0436781

>  <SCORE.RESTR>
0.515096

>  <SCORE.RESTR.CAVITY>
0.515096

>  <SCORE.RESTR.norm>
0.0223955

>  <SCORE.SYSTEM>
0

>  <SCORE.SYSTEM.CONST>
0

>  <SCORE.SYSTEM.DIHEDRAL>
0

>  <SCORE.SYSTEM.SOLV>
0

>  <SCORE.SYSTEM.norm>
0

>  <SCORE.heavy>
23

>  <SCORE.norm>
-1.15289

>  <RMSD>
6.703

$$$$
1uui_lig
 OpenBabel11021811413D
libRbt.so/2013.1/901 2013/11/27
 23 24  0  0  0  0  0  0  0  0999 V2000
  -12.9598    1.3977   -0.6939 C   0  0  0  0  0  0  0  0  0  0  0  0
  -11.3194    1.8189    1.6689 O   0  0  0  0  0  0  0  0  0  0  0  0
  -14.6886   -2.7787    1.5489 O   0  0  0  0  0  0  0  0  0  0  0  0
  -10.9704    2.1323    3.0231 C   0  0  0  0  0  0  0  0  0  0  0  0
  -15.8395   -2.5454    2.3644 C   0  0  0  0  0  0  0  0  0  0  0  0
  -12.2691    0.7666   -1.8662 N   0  0  0  0  0  0  0  0  0  0  0  0
  -12.2162    2.6288    3.7583 C   0  0  0  0  0  0  0  0  0  0  0  0
  -10.8348    1.1591   -1.9226 C   0  0  0  0  0  0  0  0  0  0  0  0
  -12.9363    1.1415   -3.1408 C   0  0  0  0  0  0  0  0  0  0  0  0
  -11.9232    2.7591    5.2563 C   0  0  0  0  0  0  0  0  0  0  0  0
  -10.6603    2.6795   -2.0775 C   0  0  0  0  0  0  0  0  0  0  0  0
  -12.9349    2.6648   -3.3551 C   0  0  0  0  0  0  0  0  0  0  0  0
  -13.1743    3.0821    5.9780 N   0  0  0  0  0  0  0  0  0  0  0  0
  -11.9331    3.3538   -2.4833 N   0  0  0  0  0  0  0  0  0  0  0  0
  -12.0723    4.7351   -2.2525 C   0  0  0  0  0  0  0  0  0  0  0  0
  -12.6764    5.1953   -1.1201 N   0  0  0  0  0  0  0  0  0  0  0  0
  -11.7292    5.6395   -3.2137 N   0  0  0  0  0  0  0  0  0  0  0  0
  -12.1627    0.6639    1.6349 C   0  0  0  0  0  0  0  0  0  0  0  0
  -12.9835    0.4163    0.5008 C   0  0  0  0  0  0  0  0  0  0  0  0
  -13.8239   -0.7312    0.4734 C   0  0  0  0  0  0  0  0  0  0  0  0
  -13.8416   -1.6264    1.5774 C   0  0  0  0  0  0  0  0  0  0  0  0
  -13.0199   -1.3771    2.7078 C   0  0  0  0  0  0  0  0  0  0  0  0
  -12.1816   -0.2316    2.7367 C   0  0  0  0  0  0  0  0  0  0  0  0
  2  4  1  0  0  0  0
  3  5  1  0  0  0  0
  4  7  1  0  0  0  0
  6  1  1  0  0  0  0
  7 10  1  0  0  0  0
  8  6  1  0  0  0  0
  8 11  1  0  0  0  0
  9  6  1  0  0  0  0
 10 13  1  0  0  0  0
 11 14  1  0  0  0  0
 12  9  1  0  0  0  0
 14 12  1  0  0  0  0
 14 15  1  0  0  0  0
 15 16  1  0  0  0  0
 15 17  1  0  0  0  0
 18  2  1  0  0  0  0
 18 23  2  0  0  0  0
 19  1  1  0  0  0  0
 19 18  1  0  0  0  0
 20 19  2  0  0  0  0
 21  3  1  0  0  0  0
 21 20  1  0  0  0  0
 22 21  2  0  0  0  0
 22 23  1  0  0  0  0
M  END
>  <CHROM.1>
-68.96784537,171.09197443,-95.69379994,-173.26296040,62.42235171,-94.36254275
-145.76420795,56.44615677,159.31130024,108.60749957,-102.98864961,-12.58037568
1.49973319,0.49631228,0.97519103,-1.20386301,-1.57133083

>  <Name>
1uui_lig

>  <RI>
0

>  <Rbt.Current_Directory>
/home/itssahil/PROJECTS/Mol_Feturizer/New_Systems/rnas/1uui

>  <Rbt.Executable>
rbdock ($Id: //depot/dev/client3/rdock/2013.1/src/exe/rbdock.cxx#4 $)

>  <Rbt.Library>
libRbt.so (2013.1, Build901 2013/11/27)

>  <Rbt.Parameter_File>
/export/apps/rDock/src/rDock_2013.1_src/data/scripts/dock_solv.prm

>  <Rbt.Receptor>
prm/pocket_docking_3.prm

>  <SCORE>
-8.44739

>  <SCORE.INTER>
-4.08581

>  <SCORE.INTER.CONST>
1

>  <SCORE.INTER.POLAR>
-0.689801

>  <SCORE.INTER.ROT>
10

>  <SCORE.INTER.SOLV>
3.55345

>  <SCORE.INTER.VDW>
-11.8757

>  <SCORE.INTER.norm>
-0.177644

>  <SCORE.INTRA>
-4.40087

>  <SCORE.INTRA.DIHEDRAL>
-10.7641

>  <SCORE.INTRA.DIHEDRAL.0>
23.4151

>  <SCORE.INTRA.POLAR>
0

>  <SCORE.INTRA.POLAR.0>
0

>  <SCORE.INTRA.REPUL>
0

>  <SCORE.INTRA.REPUL.0>
0

>  <SCORE.INTRA.SOLV>
-0.00237258

>  <SCORE.INTRA.SOLV.lig_0>
-17.3568

>  <SCORE.INTRA.VDW>
0.982376

>  <SCORE.INTRA.VDW.0>
1.0768

>  <SCORE.INTRA.norm>
-0.191342

>  <SCORE.RESTR>
0.0392861

>  <SCORE.RESTR.CAVITY>
0.0392861

>  <SCORE.RESTR.norm>
0.00170809

>  <SCORE.SYSTEM>
0

>  <SCORE.SYSTEM.CONST>
0

>  <SCORE.SYSTEM.DIHEDRAL>
0

>  <SCORE.SYSTEM.SOLV>
0

>  <SCORE.SYSTEM.norm>
0

>  <SCORE.heavy>
23

>  <SCORE.norm>
-0.367278

>  <RMSD>
6.710

$$$$
1uui_lig
 OpenBabel11021811413D
libRbt.so/2013.1/901 2013/11/27
 23 24  0  0  0  0  0  0  0  0999 V2000
   -8.7295   -0.6605    0.0276 C   0  0  0  0  0  0  0  0  0  0  0  0
  -10.0449    0.7819   -2.1266 O   0  0  0  0  0  0  0  0  0  0  0  0
  -12.5800    0.7253    2.9797 O   0  0  0  0  0  0  0  0  0  0  0  0
  -10.2068    2.0663   -2.7414 C   0  0  0  0  0  0  0  0  0  0  0  0
  -12.2910    1.9423    3.6721 C   0  0  0  0  0  0  0  0  0  0  0  0
   -7.8826    0.0853   -0.9604 N   0  0  0  0  0  0  0  0  0  0  0  0
  -11.4901    2.0640   -3.5736 C   0  0  0  0  0  0  0  0  0  0  0  0
   -7.0608   -0.8472   -1.7788 C   0  0  0  0  0  0  0  0  0  0  0  0
   -6.9922    1.0560   -0.2708 C   0  0  0  0  0  0  0  0  0  0  0  0
  -12.4321    3.1695   -3.0864 C   0  0  0  0  0  0  0  0  0  0  0  0
   -6.0970   -1.6758   -0.9125 C   0  0  0  0  0  0  0  0  0  0  0  0
   -6.0517    0.3552    0.7243 C   0  0  0  0  0  0  0  0  0  0  0  0
  -13.5435    3.3317   -4.0503 N   0  0  0  0  0  0  0  0  0  0  0  0
   -5.9581   -1.1159    0.4683 N   0  0  0  0  0  0  0  0  0  0  0  0
   -5.4847   -1.9535    1.4954 C   0  0  0  0  0  0  0  0  0  0  0  0
   -5.6787   -1.6283    2.8052 N   0  0  0  0  0  0  0  0  0  0  0  0
   -4.7069   -3.0360    1.2078 N   0  0  0  0  0  0  0  0  0  0  0  0
  -10.6772    0.7696   -0.8435 C   0  0  0  0  0  0  0  0  0  0  0  0
  -10.0720    0.0768    0.2404 C   0  0  0  0  0  0  0  0  0  0  0  0
  -10.7068    0.0635    1.5135 C   0  0  0  0  0  0  0  0  0  0  0  0
  -11.9423    0.7413    1.6994 C   0  0  0  0  0  0  0  0  0  0  0  0
  -12.5435    1.4332    0.6154 C   0  0  0  0  0  0  0  0  0  0  0  0
  -11.9114    1.4463   -0.6559 C   0  0  0  0  0  0  0  0  0  0  0  0
  2  4  1  0  0  0  0
  3  5  1  0  0  0  0
  4  7  1  0  0  0  0
  6  1  1  0  0  0  0
  7 10  1  0  0  0  0
  8  6  1  0  0  0  0
  8 11  1  0  0  0  0
  9  6  1  0  0  0  0
 10 13  1  0  0  0  0
 11 14  1  0  0  0  0
 12  9  1  0  0  0  0
 14 12  1  0  0  0  0
 14 15  1  0  0  0  0
 15 16  1  0  0  0  0
 15 17  1  0  0  0  0
 18  2  1  0  0  0  0
 18 23  2  0  0  0  0
 19  1  1  0  0  0  0
 19 18  1  0  0  0  0
 20 19  2  0  0  0  0
 21  3  1  0  0  0  0
 21 20  1  0  0  0  0
 22 21  2  0  0  0  0
 22 23  1  0  0  0  0
M  END
>  <CHROM.1>
-90.33370041,121.80348852,-146.43347660,169.17298854,159.86280752,-161.96790034
112.25757657,109.64509744,-141.93645559,34.06421306,98.93336492,-9.33204146
0.40112894,-0.16994843,0.43199900,-0.43284116,1.81083843

>  <Name>
1uui_lig

>  <RI>
0

>  <Rbt.Current_Directory>
/home/itssahil/PROJECTS/Mol_Feturizer/New_Systems/rnas/1uui

>  <Rbt.Executable>
rbdock ($Id: //depot/dev/client3/rdock/2013.1/src/exe/rbdock.cxx#4 $)

>  <Rbt.Library>
libRbt.so (2013.1, Build901 2013/11/27)

>  <Rbt.Parameter_File>
/export/apps/rDock/src/rDock_2013.1_src/data/scripts/dock_solv.prm

>  <Rbt.Receptor>
prm/pocket_docking_4.prm

>  <SCORE>
-23.9928

>  <SCORE.INTER>
-23.1083

>  <SCORE.INTER.CONST>
1

>  <SCORE.INTER.POLAR>
-4.07849

>  <SCORE.INTER.ROT>
10

>  <SCORE.INTER.SOLV>
6.52264

>  <SCORE.INTER.VDW>
-14.2514

>  <SCORE.INTER.norm>
-1.00471

>  <SCORE.INTRA>
-0.884571

>  <SCORE.INTRA.DIHEDRAL>
0.0797737

>  <SCORE.INTRA.DIHEDRAL.0>
23.4151

>  <SCORE.INTRA.POLAR>
-0.741074

>  <SCORE.INTRA.POLAR.0>
0

>  <SCORE.INTRA.REPUL>
0

>  <SCORE.INTRA.REPUL.0>
0

>  <SCORE.INTRA.SOLV>
0.360222

>  <SCORE.INTRA.SOLV.lig_0>
-17.3568

>  <SCORE.INTRA.VDW>
1.41508

>  <SCORE.INTRA.VDW.0>
1.0768

>  <SCORE.INTRA.norm>
-0.0384596

>  <SCORE.RESTR>
0

>  <SCORE.RESTR.CAVITY>
0

>  <SCORE.RESTR.norm>
0

>  <SCORE.SYSTEM>
0

>  <SCORE.SYSTEM.CONST>
0

>  <SCORE.SYSTEM.DIHEDRAL>
0

>  <SCORE.SYSTEM.SOLV>
0

>  <SCORE.SYSTEM.norm>
0

>  <SCORE.heavy>
23

>  <SCORE.norm>
-1.04317

>  <RMSD>
6.719

$$$$
1uui_lig
 OpenBabel11021811413D
libRbt.so/2013.1/901 2013/11/27
 23 24  0  0  0  0  0  0  0  0999 V2000
   -8.7122   -0.0282    0.5873 C   0  0  0  0  0  0  0  0  0  0  0  0
  -10.0245    2.0400   -0.9784 O   0  0  0  0  0  0  0  0  0  0  0  0
  -12.9847   -0.3842    3.2482 O   0  0  0  0  0  0  0  0  0  0  0  0
  -10.5863    1.6662   -2.2428 C   0  0  0  0  0  0  0  0  0  0  0  0
  -13.1240    0.5419    4.3285 C   0  0  0  0  0  0  0  0  0  0  0  0
   -7.9014    1.1391    0.1082 N   0  0  0  0  0  0  0  0  0  0  0  0
  -11.7324    2.6203   -2.5823 C   0  0  0  0  0  0  0  0  0  0  0  0
   -6.9593    0.7350   -0.9707 C   0  0  0  0  0  0  0  0  0  0  0  0
   -7.1393    1.7519    1.2280 C   0  0  0  0  0  0  0  0  0  0  0  0
  -12.4979    2.1050   -3.8052 C   0  0  0  0  0  0  0  0  0  0  0  0
   -5.9564   -0.3277   -0.4903 C   0  0  0  0  0  0  0  0  0  0  0  0
   -6.1773    0.7431    1.8785 C   0  0  0  0  0  0  0  0  0  0  0  0
  -13.5912    3.0462   -4.1361 N   0  0  0  0  0  0  0  0  0  0  0  0
   -5.9304   -0.4436    1.0016 N   0  0  0  0  0  0  0  0  0  0  0  0
   -5.4211   -1.6203    1.5816 C   0  0  0  0  0  0  0  0  0  0  0  0
   -5.0922   -2.6933    0.8073 N   0  0  0  0  0  0  0  0  0  0  0  0
   -5.3714   -1.7633    2.9368 N   0  0  0  0  0  0  0  0  0  0  0  0
  -10.7640    1.4330    0.0850 C   0  0  0  0  0  0  0  0  0  0  0  0
  -10.1644    0.4165    0.8778 C   0  0  0  0  0  0  0  0  0  0  0  0
  -10.9053   -0.1874    1.9315 C   0  0  0  0  0  0  0  0  0  0  0  0
  -12.2407    0.2255    2.1895 C   0  0  0  0  0  0  0  0  0  0  0  0
  -12.8362    1.2417    1.3970 C   0  0  0  0  0  0  0  0  0  0  0  0
  -12.0981    1.8443    0.3445 C   0  0  0  0  0  0  0  0  0  0  0  0
  2  4  1  0  0  0  0
  3  5  1  0  0  0  0
  4  7  1  0  0  0  0
  6  1  1  0  0  0  0
  7 10  1  0  0  0  0
  8  6  1  0  0  0  0
  8 11  1  0  0  0  0
  9  6  1  0  0  0  0
 10 13  1  0  0  0  0
 11 14  1  0  0  0  0
 12  9  1  0  0  0  0
 14 12  1  0  0  0  0
 14 15  1  0  0  0  0
 15 16  1  0  0  0  0
 15 17  1  0  0  0  0
 18  2  1  0  0  0  0
 18 23  2  0  0  0  0
 19  1  1  0  0  0  0
 19 18  1  0  0  0  0
 20 19  2  0  0  0  0
 21  3  1  0  0  0  0
 21 20  1  0  0  0  0
 22 21  2  0  0  0  0
 22 23  1  0  0  0  0
M  END
>  <CHROM.1>
85.50190505,-170.54902270,-141.42039429,-179.16305379,73.16651620,-7.06535007
92.58845588,-80.83162322,111.59401116,33.75493866,107.83410145,-9.46824699
0.60850451,0.37774837,0.46531580,-0.24617119,1.95262246

>  <Name>
1uui_lig

>  <RI>
0

>  <Rbt.Current_Directory>
/home/itssahil/PROJECTS/Mol_Feturizer/New_Systems/rnas/1uui

>  <Rbt.Executable>
rbdock ($Id: //depot/dev/client3/rdock/2013.1/src/exe/rbdock.cxx#4 $)

>  <Rbt.Library>
libRbt.so (2013.1, Build901 2013/11/27)

>  <Rbt.Parameter_File>
/export/apps/rDock/src/rDock_2013.1_src/data/scripts/dock_solv.prm

>  <Rbt.Receptor>
prm/pocket_docking_4.prm

>  <SCORE>
-23.6332

>  <SCORE.INTER>
-17.99

>  <SCORE.INTER.CONST>
1

>  <SCORE.INTER.POLAR>
-3.64268

>  <SCORE.INTER.ROT>
10

>  <SCORE.INTER.SOLV>
5.32696

>  <SCORE.INTER.VDW>
-11.8934

>  <SCORE.INTER.norm>
-0.782172

>  <SCORE.INTRA>
-5.64321

>  <SCORE.INTRA.DIHEDRAL>
-4.58479

>  <SCORE.INTRA.DIHEDRAL.0>
23.4151

>  <SCORE.INTRA.POLAR>
-0.85207

>  <SCORE.INTRA.POLAR.0>
0

>  <SCORE.INTRA.REPUL>
0

>  <SCORE.INTRA.REPUL.0>
0

>  <SCORE.INTRA.SOLV>
0.282925

>  <SCORE.INTRA.SOLV.lig_0>
-17.3568

>  <SCORE.INTRA.VDW>
-0.595238

>  <SCORE.INTRA.VDW.0>
1.0768

>  <SCORE.INTRA.norm>
-0.245357

>  <SCORE.RESTR>
0

>  <SCORE.RESTR.CAVITY>
0

>  <SCORE.RESTR.norm>
0

>  <SCORE.SYSTEM>
0

>  <SCORE.SYSTEM.CONST>
0

>  <SCORE.SYSTEM.DIHEDRAL>
0

>  <SCORE.SYSTEM.SOLV>
0

>  <SCORE.SYSTEM.norm>
0

>  <SCORE.heavy>
23

>  <SCORE.norm>
-1.02753

>  <RMSD>
6.727

$$$$
1uui_lig
 OpenBabel11021811413D
libRbt.so/2013.1/901 2013/11/27
 23 24  0  0  0  0  0  0  0  0999 V2000
  -10.3756    0.0390    0.3351 C   0  0  0  0  0  0  0  0  0  0  0  0
  -12.4207    1.8934   -0.5760 O   0  0  0  0  0  0  0  0  0  0  0  0
  -13.5760   -1.3123    3.9948 O   0  0  0  0  0  0  0  0  0  0  0  0
  -13.0723    3.1648   -0.4615 C   0  0  0  0  0  0  0  0  0  0  0  0
  -13.1153   -0.6492    5.1747 C   0  0  0  0  0  0  0  0  0  0  0  0
   -9.6630    1.3587    0.3374 N   0  0  0  0  0  0  0  0  0  0  0  0
  -13.1411    3.8174   -1.8430 C   0  0  0  0  0  0  0  0  0  0  0  0
   -8.5892    1.3938   -0.6924 C   0  0  0  0  0  0  0  0  0  0  0  0
   -9.0777    1.6441    1.6739 C   0  0  0  0  0  0  0  0  0  0  0  0
  -13.8997    2.9077   -2.8147 C   0  0  0  0  0  0  0  0  0  0  0  0
   -7.5190    0.3173   -0.4442 C   0  0  0  0  0  0  0  0  0  0  0  0
   -8.0692    0.5614    2.0944 C   0  0  0  0  0  0  0  0  0  0  0  0
  -14.1558    3.6374   -4.0766 N   0  0  0  0  0  0  0  0  0  0  0  0
   -7.6125   -0.2628    0.9322 N   0  0  0  0  0  0  0  0  0  0  0  0
   -7.0266   -1.5180    1.1805 C   0  0  0  0  0  0  0  0  0  0  0  0
   -6.1576   -1.6889    2.2170 N   0  0  0  0  0  0  0  0  0  0  0  0
   -7.2086   -2.5548    0.3135 N   0  0  0  0  0  0  0  0  0  0  0  0
  -12.7068    1.0908    0.5729 C   0  0  0  0  0  0  0  0  0  0  0  0
  -11.7378    0.1690    1.0552 C   0  0  0  0  0  0  0  0  0  0  0  0
  -12.0287   -0.6303    2.1955 C   0  0  0  0  0  0  0  0  0  0  0  0
  -13.2846   -0.5064    2.8495 C   0  0  0  0  0  0  0  0  0  0  0  0
  -14.2496    0.4159    2.3663 C   0  0  0  0  0  0  0  0  0  0  0  0
  -13.9609    1.2133    1.2277 C   0  0  0  0  0  0  0  0  0  0  0  0
  2  4  1  0  0  0  0
  3  5  1  0  0  0  0
  4  7  1  0  0  0  0
  6  1  1  0  0  0  0
  7 10  1  0  0  0  0
  8  6  1  0  0  0  0
  8 11  1  0  0  0  0
  9  6  1  0  0  0  0
 10 13  1  0  0  0  0
 11 14  1  0  0  0  0
 12  9  1  0  0  0  0
 14 12  1  0  0  0  0
 14 15  1  0  0  0  0
 15 16  1  0  0  0  0
 15 17  1  0  0  0  0
 18  2  1  0  0  0  0
 18 23  2  0  0  0  0
 19  1  1  0  0  0  0
 19 18  1  0  0  0  0
 20 19  2  0  0  0  0
 21  3  1  0  0  0  0
 21 20  1  0  0  0  0
 22 21  2  0  0  0  0
 22 23  1  0  0  0  0
M  END
>  <CHROM.1>
-161.90328140,58.50875552,-161.77646230,170.70099993,174.92611033,127.80583640
109.96314234,178.87651261,-147.55744472,59.21327258,87.80293575,-10.94968136
0.63627646,0.72239358,-0.59302035,0.24954621,-1.00540767

>  <Name>
1uui_lig

>  <RI>
0

>  <Rbt.Current_Directory>
/home/itssahil/PROJECTS/Mol_Feturizer/New_Systems/rnas/1uui

>  <Rbt.Executable>
rbdock ($Id: //depot/dev/client3/rdock/2013.1/src/exe/rbdock.cxx#4 $)

>  <Rbt.Library>
libRbt.so (2013.1, Build901 2013/11/27)

>  <Rbt.Parameter_File>
/export/apps/rDock/src/rDock_2013.1_src/data/scripts/dock_solv.prm

>  <Rbt.Receptor>
prm/pocket_docking_4.prm

>  <SCORE>
-32.6044

>  <SCORE.INTER>
-25.7522

>  <SCORE.INTER.CONST>
1

>  <SCORE.INTER.POLAR>
-4.80847

>  <SCORE.INTER.ROT>
10

>  <SCORE.INTER.SOLV>
6.50492

>  <SCORE.INTER.VDW>
-13.5748

>  <SCORE.INTER.norm>
-1.11966

>  <SCORE.INTRA>
-6.85225

>  <SCORE.INTRA.DIHEDRAL>
-10.4054

>  <SCORE.INTRA.DIHEDRAL.0>
23.4151

>  <SCORE.INTRA.POLAR>
-0.312258

>  <SCORE.INTRA.POLAR.0>
0

>  <SCORE.INTRA.REPUL>
0

>  <SCORE.INTRA.REPUL.0>
0

>  <SCORE.INTRA.SOLV>
0.265227

>  <SCORE.INTRA.SOLV.lig_0>
-17.3568

>  <SCORE.INTRA.VDW>
-0.720501

>  <SCORE.INTRA.VDW.0>
1.0768

>  <SCORE.INTRA.norm>
-0.297924

>  <SCORE.RESTR>
0

>  <SCORE.RESTR.CAVITY>
0

>  <SCORE.RESTR.norm>
0

>  <SCORE.SYSTEM>
0

>  <SCORE.SYSTEM.CONST>
0

>  <SCORE.SYSTEM.DIHEDRAL>
0

>  <SCORE.SYSTEM.SOLV>
0

>  <SCORE.SYSTEM.norm>
0

>  <SCORE.heavy>
23

>  <SCORE.norm>
-1.41758

>  <RMSD>
6.728

$$$$
1uui_lig
 OpenBabel11021811413D
libRbt.so/2013.1/901 2013/11/27
 23 24  0  0  0  0  0  0  0  0999 V2000
   -9.1483    0.7321   -0.9380 C   0  0  0  0  0  0  0  0  0  0  0  0
   -7.3799   -0.0917   -3.0934 O   0  0  0  0  0  0  0  0  0  0  0  0
   -6.4658   -2.2849    2.0891 O   0  0  0  0  0  0  0  0  0  0  0  0
   -6.1494    0.4035   -3.6363 C   0  0  0  0  0  0  0  0  0  0  0  0
   -5.6009   -1.4173    2.8262 C   0  0  0  0  0  0  0  0  0  0  0  0
  -10.4338    0.1678   -0.4101 N   0  0  0  0  0  0  0  0  0  0  0  0
   -6.3808    0.8371   -5.0846 C   0  0  0  0  0  0  0  0  0  0  0  0
  -11.2988   -0.3289   -1.5145 C   0  0  0  0  0  0  0  0  0  0  0  0
  -11.1751    1.1851    0.3811 C   0  0  0  0  0  0  0  0  0  0  0  0
   -7.2923    2.0678   -5.1235 C   0  0  0  0  0  0  0  0  0  0  0  0
  -11.6822    0.7935   -2.4939 C   0  0  0  0  0  0  0  0  0  0  0  0
  -11.5147    2.4244   -0.4645 C   0  0  0  0  0  0  0  0  0  0  0  0
   -8.6683    1.6755   -4.7451 N   0  0  0  0  0  0  0  0  0  0  0  0
  -11.4023    2.1517   -1.9313 N   0  0  0  0  0  0  0  0  0  0  0  0
  -11.2795    3.2399   -2.8152 C   0  0  0  0  0  0  0  0  0  0  0  0
  -10.0528    3.7359   -3.1441 N   0  0  0  0  0  0  0  0  0  0  0  0
  -12.3843    3.9068   -3.2559 N   0  0  0  0  0  0  0  0  0  0  0  0
   -7.1549   -0.6436   -1.7930 C   0  0  0  0  0  0  0  0  0  0  0  0
   -7.9935   -0.2700   -0.7075 C   0  0  0  0  0  0  0  0  0  0  0  0
   -7.7630   -0.8181    0.5850 C   0  0  0  0  0  0  0  0  0  0  0  0
   -6.6972   -1.7362    0.7885 C   0  0  0  0  0  0  0  0  0  0  0  0
   -5.8623   -2.1083   -0.2977 C   0  0  0  0  0  0  0  0  0  0  0  0
   -6.0907   -1.5611   -1.5877 C   0  0  0  0  0  0  0  0  0  0  0  0
  2  4  1  0  0  0  0
  3  5  1  0  0  0  0
  4  7  1  0  0  0  0
  6  1  1  0  0  0  0
  7 10  1  0  0  0  0
  8  6  1  0  0  0  0
  8 11  1  0  0  0  0
  9  6  1  0  0  0  0
 10 13  1  0  0  0  0
 11 14  1  0  0  0  0
 12  9  1  0  0  0  0
 14 12  1  0  0  0  0
 14 15  1  0  0  0  0
 15 16  1  0  0  0  0
 15 17  1  0  0  0  0
 18  2  1  0  0  0  0
 18 23  2  0  0  0  0
 19  1  1  0  0  0  0
 19 18  1  0  0  0  0
 20 19  2  0  0  0  0
 21  3  1  0  0  0  0
 21 20  1  0  0  0  0
 22 21  2  0  0  0  0
 22 23  1  0  0  0  0
M  END
>  <CHROM.1>
173.42798648,67.82203617,-103.46975388,-70.84532244,-176.50979184,-102.36846865
146.90670062,20.43103486,130.97899783,128.26089859,-87.81148881,-8.73484782
0.58330212,-1.62450716,0.78980113,-0.46379003,2.01310226

>  <Name>
1uui_lig

>  <RI>
0

>  <Rbt.Current_Directory>
/home/itssahil/PROJECTS/Mol_Feturizer/New_Systems/rnas/1uui

>  <Rbt.Executable>
rbdock ($Id: //depot/dev/client3/rdock/2013.1/src/exe/rbdock.cxx#4 $)

>  <Rbt.Library>
libRbt.so (2013.1, Build901 2013/11/27)

>  <Rbt.Parameter_File>
/export/apps/rDock/src/rDock_2013.1_src/data/scripts/dock_solv.prm

>  <Rbt.Receptor>
prm/pocket_docking_6.prm

>  <SCORE>
-33.8223

>  <SCORE.INTER>
-25.558

>  <SCORE.INTER.CONST>
1

>  <SCORE.INTER.POLAR>
-3.61133

>  <SCORE.INTER.ROT>
10

>  <SCORE.INTER.SOLV>
7.19536

>  <SCORE.INTER.VDW>
-17.666

>  <SCORE.INTER.norm>
-1.11122

>  <SCORE.INTRA>
-8.2643

>  <SCORE.INTRA.DIHEDRAL>
-7.73756

>  <SCORE.INTRA.DIHEDRAL.0>
23.4151

>  <SCORE.INTRA.POLAR>
-0.75492

>  <SCORE.INTRA.POLAR.0>
0

>  <SCORE.INTRA.REPUL>
0

>  <SCORE.INTRA.REPUL.0>
0

>  <SCORE.INTRA.SOLV>
1.82711

>  <SCORE.INTRA.SOLV.lig_0>
-17.3568

>  <SCORE.INTRA.VDW>
-2.74235

>  <SCORE.INTRA.VDW.0>
1.0768

>  <SCORE.INTRA.norm>
-0.359318

>  <SCORE.RESTR>
0

>  <SCORE.RESTR.CAVITY>
0

>  <SCORE.RESTR.norm>
0

>  <SCORE.SYSTEM>
0

>  <SCORE.SYSTEM.CONST>
0

>  <SCORE.SYSTEM.DIHEDRAL>
0

>  <SCORE.SYSTEM.SOLV>
0

>  <SCORE.SYSTEM.norm>
0

>  <SCORE.heavy>
23

>  <SCORE.norm>
-1.47054

>  <RMSD>
6.733

$$$$
1uui_lig
 OpenBabel11021811413D
libRbt.so/2013.1/901 2013/11/27
 23 24  0  0  0  0  0  0  0  0999 V2000
  -12.6519    2.0850    0.0133 C   0  0  0  0  0  0  0  0  0  0  0  0
  -11.4701    1.4789    2.5993 O   0  0  0  0  0  0  0  0  0  0  0  0
  -15.2116   -2.2424    0.4414 O   0  0  0  0  0  0  0  0  0  0  0  0
  -12.1569    2.4591    3.3876 C   0  0  0  0  0  0  0  0  0  0  0  0
  -16.5404   -1.7681    0.6725 C   0  0  0  0  0  0  0  0  0  0  0  0
  -11.1652    2.2825    0.0008 N   0  0  0  0  0  0  0  0  0  0  0  0
  -12.2078    1.9853    4.8410 C   0  0  0  0  0  0  0  0  0  0  0  0
  -10.8010    3.6012   -0.5849 C   0  0  0  0  0  0  0  0  0  0  0  0
  -10.4917    1.1983   -0.7617 C   0  0  0  0  0  0  0  0  0  0  0  0
  -13.5544    1.3124    5.1256 C   0  0  0  0  0  0  0  0  0  0  0  0
  -11.2731    3.7330   -2.0429 C   0  0  0  0  0  0  0  0  0  0  0  0
  -10.9742    1.1474   -2.2214 C   0  0  0  0  0  0  0  0  0  0  0  0
  -13.5675    0.8017    6.5146 N   0  0  0  0  0  0  0  0  0  0  0  0
  -11.6602    2.4123   -2.6309 N   0  0  0  0  0  0  0  0  0  0  0  0
  -12.5001    2.3926   -3.7599 C   0  0  0  0  0  0  0  0  0  0  0  0
  -13.6343    3.1483   -3.7982 N   0  0  0  0  0  0  0  0  0  0  0  0
  -12.2719    1.5194   -4.7821 N   0  0  0  0  0  0  0  0  0  0  0  0
  -12.4062    0.5448    2.0541 C   0  0  0  0  0  0  0  0  0  0  0  0
  -13.0108    0.7986    0.7926 C   0  0  0  0  0  0  0  0  0  0  0  0
  -13.9447   -0.1311    0.2565 C   0  0  0  0  0  0  0  0  0  0  0  0
  -14.2711   -1.3096    0.9812 C   0  0  0  0  0  0  0  0  0  0  0  0
  -13.6647   -1.5608    2.2399 C   0  0  0  0  0  0  0  0  0  0  0  0
  -12.7334   -0.6331    2.7765 C   0  0  0  0  0  0  0  0  0  0  0  0
  2  4  1  0  0  0  0
  3  5  1  0  0  0  0
  4  7  1  0  0  0  0
  6  1  1  0  0  0  0
  7 10  1  0  0  0  0
  8  6  1  0  0  0  0
  8 11  1  0  0  0  0
  9  6  1  0  0  0  0
 10 13  1  0  0  0  0
 11 14  1  0  0  0  0
 12  9  1  0  0  0  0
 14 12  1  0  0  0  0
 14 15  1  0  0  0  0
 15 16  1  0  0  0  0
 15 17  1  0  0  0  0
 18  2  1  0  0  0  0
 18 23  2  0  0  0  0
 19  1  1  0  0  0  0
 19 18  1  0  0  0  0
 20 19  2  0  0  0  0
 21  3  1  0  0  0  0
 21 20  1  0  0  0  0
 22 21  2  0  0  0  0
 22 23  1  0  0  0  0
M  END
>  <CHROM.1>
91.68681587,-97.20301132,-172.52244064,177.34321384,-67.13254868,-47.44821471
32.33588021,-91.94878736,89.35946669,46.43917744,-79.71242155,-12.71369223
1.11936815,0.52558971,-1.28579366,0.85734945,1.62245345

>  <Name>
1uui_lig

>  <RI>
0

>  <Rbt.Current_Directory>
/home/itssahil/PROJECTS/Mol_Feturizer/New_Systems/rnas/1uui

>  <Rbt.Executable>
rbdock ($Id: //depot/dev/client3/rdock/2013.1/src/exe/rbdock.cxx#4 $)

>  <Rbt.Library>
libRbt.so (2013.1, Build901 2013/11/27)

>  <Rbt.Parameter_File>
/export/apps/rDock/src/rDock_2013.1_src/data/scripts/dock_solv.prm

>  <Rbt.Receptor>
prm/pocket_docking_5.prm

>  <SCORE>
-17.278

>  <SCORE.INTER>
-11.4318

>  <SCORE.INTER.CONST>
1

>  <SCORE.INTER.POLAR>
-1.63612

>  <SCORE.INTER.ROT>
10

>  <SCORE.INTER.SOLV>
6.56204

>  <SCORE.INTER.VDW>
-14.6215

>  <SCORE.INTER.norm>
-0.497036

>  <SCORE.INTRA>
-5.84613

>  <SCORE.INTRA.DIHEDRAL>
-1.6117

>  <SCORE.INTRA.DIHEDRAL.0>
23.4151

>  <SCORE.INTRA.POLAR>
-0.631009

>  <SCORE.INTRA.POLAR.0>
0

>  <SCORE.INTRA.REPUL>
0

>  <SCORE.INTRA.REPUL.0>
0

>  <SCORE.INTRA.SOLV>
0.412692

>  <SCORE.INTRA.SOLV.lig_0>
-17.3568

>  <SCORE.INTRA.VDW>
-3.1012

>  <SCORE.INTRA.VDW.0>
1.0768

>  <SCORE.INTRA.norm>
-0.25418

>  <SCORE.RESTR>
0

>  <SCORE.RESTR.CAVITY>
0

>  <SCORE.RESTR.norm>
0

>  <SCORE.SYSTEM>
0

>  <SCORE.SYSTEM.CONST>
0

>  <SCORE.SYSTEM.DIHEDRAL>
0

>  <SCORE.SYSTEM.SOLV>
0

>  <SCORE.SYSTEM.norm>
0

>  <SCORE.heavy>
23

>  <SCORE.norm>
-0.751216

>  <RMSD>
6.745

$$$$
1uui_lig
 OpenBabel11021811413D
libRbt.so/2013.1/901 2013/11/27
 23 24  0  0  0  0  0  0  0  0999 V2000
  -11.4370    1.0557    0.9898 C   0  0  0  0  0  0  0  0  0  0  0  0
  -13.0766   -0.3281   -0.9719 O   0  0  0  0  0  0  0  0  0  0  0  0
  -13.9794   -1.4736    4.5396 O   0  0  0  0  0  0  0  0  0  0  0  0
  -13.9999    0.6689   -1.4274 C   0  0  0  0  0  0  0  0  0  0  0  0
  -14.5091   -0.3157    5.1897 C   0  0  0  0  0  0  0  0  0  0  0  0
  -10.0819    0.5508    1.3877 N   0  0  0  0  0  0  0  0  0  0  0  0
  -13.6840    1.0148   -2.8833 C   0  0  0  0  0  0  0  0  0  0  0  0
   -9.1890    1.6685    1.7979 C   0  0  0  0  0  0  0  0  0  0  0  0
   -9.4495   -0.2064    0.2755 C   0  0  0  0  0  0  0  0  0  0  0  0
  -12.2505    1.5430   -2.9969 C   0  0  0  0  0  0  0  0  0  0  0  0
   -8.9643    2.6739    0.6557 C   0  0  0  0  0  0  0  0  0  0  0  0
   -9.2792    0.6659   -0.9799 C   0  0  0  0  0  0  0  0  0  0  0  0
  -11.9174    1.7651   -4.4218 N   0  0  0  0  0  0  0  0  0  0  0  0
   -9.3913    2.1252   -0.6695 N   0  0  0  0  0  0  0  0  0  0  0  0
   -9.6627    3.0222   -1.7193 C   0  0  0  0  0  0  0  0  0  0  0  0
   -9.1232    2.8310   -2.9567 N   0  0  0  0  0  0  0  0  0  0  0  0
  -10.3592    4.1720   -1.4899 N   0  0  0  0  0  0  0  0  0  0  0  0
  -13.3039   -0.6111    0.4117 C   0  0  0  0  0  0  0  0  0  0  0  0
  -12.5263    0.0407    1.4075 C   0  0  0  0  0  0  0  0  0  0  0  0
  -12.7529   -0.2473    2.7821 C   0  0  0  0  0  0  0  0  0  0  0  0
  -13.7542   -1.1840    3.1570 C   0  0  0  0  0  0  0  0  0  0  0  0
  -14.5299   -1.8322    2.1603 C   0  0  0  0  0  0  0  0  0  0  0  0
  -14.3039   -1.5464    0.7881 C   0  0  0  0  0  0  0  0  0  0  0  0
  2  4  1  0  0  0  0
  3  5  1  0  0  0  0
  4  7  1  0  0  0  0
  6  1  1  0  0  0  0
  7 10  1  0  0  0  0
  8  6  1  0  0  0  0
  8 11  1  0  0  0  0
  9  6  1  0  0  0  0
 10 13  1  0  0  0  0
 11 14  1  0  0  0  0
 12  9  1  0  0  0  0
 14 12  1  0  0  0  0
 14 15  1  0  0  0  0
 15 16  1  0  0  0  0
 15 17  1  0  0  0  0
 18  2  1  0  0  0  0
 18 23  2  0  0  0  0
 19  1  1  0  0  0  0
 19 18  1  0  0  0  0
 20 19  2  0  0  0  0
 21  3  1  0  0  0  0
 21 20  1  0  0  0  0
 22 21  2  0  0  0  0
 22 23  1  0  0  0  0
M  END
>  <CHROM.1>
176.65693580,-59.47603107,-144.95656912,175.21527701,28.49403551,131.18135637
-12.91737815,118.68853504,-95.98192304,-115.81929065,66.97510145,-11.76695926
0.75411634,0.14440749,-2.15109384,-0.47449196,-1.30660875

>  <Name>
1uui_lig

>  <RI>
0

>  <Rbt.Current_Directory>
/home/itssahil/PROJECTS/Mol_Feturizer/New_Systems/rnas/1uui

>  <Rbt.Executable>
rbdock ($Id: //depot/dev/client3/rdock/2013.1/src/exe/rbdock.cxx#4 $)

>  <Rbt.Library>
libRbt.so (2013.1, Build901 2013/11/27)

>  <Rbt.Parameter_File>
/export/apps/rDock/src/rDock_2013.1_src/data/scripts/dock_solv.prm

>  <Rbt.Receptor>
prm/pocket_docking_5.prm

>  <SCORE>
-18.7643

>  <SCORE.INTER>
-13.0731

>  <SCORE.INTER.CONST>
1

>  <SCORE.INTER.POLAR>
-2.25484

>  <SCORE.INTER.ROT>
10

>  <SCORE.INTER.SOLV>
5.48453

>  <SCORE.INTER.VDW>
-13.2941

>  <SCORE.INTER.norm>
-0.568394

>  <SCORE.INTRA>
-5.6912

>  <SCORE.INTRA.DIHEDRAL>
-6.10096

>  <SCORE.INTRA.DIHEDRAL.0>
23.4151

>  <SCORE.INTRA.POLAR>
0

>  <SCORE.INTRA.POLAR.0>
0

>  <SCORE.INTRA.REPUL>
0

>  <SCORE.INTRA.REPUL.0>
0

>  <SCORE.INTRA.SOLV>
1.39818

>  <SCORE.INTRA.SOLV.lig_0>
-17.3568

>  <SCORE.INTRA.VDW>
-3.33981

>  <SCORE.INTRA.VDW.0>
1.0768

>  <SCORE.INTRA.norm>
-0.247444

>  <SCORE.RESTR>
0

>  <SCORE.RESTR.CAVITY>
0

>  <SCORE.RESTR.norm>
0

>  <SCORE.SYSTEM>
0

>  <SCORE.SYSTEM.CONST>
0

>  <SCORE.SYSTEM.DIHEDRAL>
0

>  <SCORE.SYSTEM.SOLV>
0

>  <SCORE.SYSTEM.norm>
0

>  <SCORE.heavy>
23

>  <SCORE.norm>
-0.815837

>  <RMSD>
6.748

$$$$
1uui_lig
 OpenBabel11021811413D
libRbt.so/2013.1/901 2013/11/27
 23 24  0  0  0  0  0  0  0  0999 V2000
  -12.5579    0.2798   -0.1605 C   0  0  0  0  0  0  0  0  0  0  0  0
  -11.7716    3.0311    0.3525 O   0  0  0  0  0  0  0  0  0  0  0  0
  -12.4377   -0.4298    4.8339 O   0  0  0  0  0  0  0  0  0  0  0  0
  -10.5049    2.7918   -0.2738 C   0  0  0  0  0  0  0  0  0  0  0  0
  -13.7690   -0.3016    5.3391 C   0  0  0  0  0  0  0  0  0  0  0  0
  -14.0207    0.3224   -0.4893 N   0  0  0  0  0  0  0  0  0  0  0  0
  -10.1830    3.9565   -1.2114 C   0  0  0  0  0  0  0  0  0  0  0  0
  -14.3580   -0.6392   -1.5739 C   0  0  0  0  0  0  0  0  0  0  0  0
  -14.4344    1.6918   -0.8944 C   0  0  0  0  0  0  0  0  0  0  0  0
  -11.3210    4.1474   -2.2191 C   0  0  0  0  0  0  0  0  0  0  0  0
  -13.6061   -0.3223   -2.8778 C   0  0  0  0  0  0  0  0  0  0  0  0
  -13.6575    2.1767   -2.1303 C   0  0  0  0  0  0  0  0  0  0  0  0
  -10.8597    5.0140   -3.3267 N   0  0  0  0  0  0  0  0  0  0  0  0
  -13.0031    1.0473   -2.8614 N   0  0  0  0  0  0  0  0  0  0  0  0
  -11.9487    1.3348   -3.7481 C   0  0  0  0  0  0  0  0  0  0  0  0
  -12.1939    1.5801   -5.0666 N   0  0  0  0  0  0  0  0  0  0  0  0
  -10.6510    1.2423   -3.3396 N   0  0  0  0  0  0  0  0  0  0  0  0
  -11.9356    2.1599    1.4751 C   0  0  0  0  0  0  0  0  0  0  0  0
  -12.3199    0.8060    1.2739 C   0  0  0  0  0  0  0  0  0  0  0  0
  -12.4862   -0.0555    2.3937 C   0  0  0  0  0  0  0  0  0  0  0  0
  -12.2683    0.4374    3.7090 C   0  0  0  0  0  0  0  0  0  0  0  0
  -11.8833    1.7895    3.9066 C   0  0  0  0  0  0  0  0  0  0  0  0
  -11.7181    2.6505    2.7898 C   0  0  0  0  0  0  0  0  0  0  0  0
  2  4  1  0  0  0  0
  3  5  1  0  0  0  0
  4  7  1  0  0  0  0
  6  1  1  0  0  0  0
  7 10  1  0  0  0  0
  8  6  1  0  0  0  0
  8 11  1  0  0  0  0
  9  6  1  0  0  0  0
 10 13  1  0  0  0  0
 11 14  1  0  0  0  0
 12  9  1  0  0  0  0
 14 12  1  0  0  0  0
 14 15  1  0  0  0  0
 15 16  1  0  0  0  0
 15 17  1  0  0  0  0
 18  2  1  0  0  0  0
 18 23  2  0  0  0  0
 19  1  1  0  0  0  0
 19 18  1  0  0  0  0
 20 19  2  0  0  0  0
 21  3  1  0  0  0  0
 21 20  1  0  0  0  0
 22 21  2  0  0  0  0
 22 23  1  0  0  0  0
M  END
>  <CHROM.1>
-164.86103537,-55.61731654,-157.09937194,-165.12065801,59.65167103,77.35959742
-166.42167362,4.85552022,-79.14741516,-96.81944580,-93.41316803,-12.33016553
1.53794863,-0.27060541,1.74275202,0.92884908,1.68888065

>  <Name>
1uui_lig

>  <RI>
0

>  <Rbt.Current_Directory>
/home/itssahil/PROJECTS/Mol_Feturizer/New_Systems/rnas/1uui

>  <Rbt.Executable>
rbdock ($Id: //depot/dev/client3/rdock/2013.1/src/exe/rbdock.cxx#4 $)

>  <Rbt.Library>
libRbt.so (2013.1, Build901 2013/11/27)

>  <Rbt.Parameter_File>
/export/apps/rDock/src/rDock_2013.1_src/data/scripts/dock_solv.prm

>  <Rbt.Receptor>
prm/pocket_docking_5.prm

>  <SCORE>
-24.6394

>  <SCORE.INTER>
-17.5466

>  <SCORE.INTER.CONST>
1

>  <SCORE.INTER.POLAR>
-2.58295

>  <SCORE.INTER.ROT>
10

>  <SCORE.INTER.SOLV>
7.4777

>  <SCORE.INTER.VDW>
-15.8471

>  <SCORE.INTER.norm>
-0.762896

>  <SCORE.INTRA>
-7.09282

>  <SCORE.INTRA.DIHEDRAL>
-6.57815

>  <SCORE.INTRA.DIHEDRAL.0>
23.4151

>  <SCORE.INTRA.POLAR>
0

>  <SCORE.INTRA.POLAR.0>
0

>  <SCORE.INTRA.REPUL>
0

>  <SCORE.INTRA.REPUL.0>
0

>  <SCORE.INTRA.SOLV>
1.79256

>  <SCORE.INTRA.SOLV.lig_0>
-17.3568

>  <SCORE.INTRA.VDW>
-4.70003

>  <SCORE.INTRA.VDW.0>
1.0768

>  <SCORE.INTRA.norm>
-0.308383

>  <SCORE.RESTR>
0

>  <SCORE.RESTR.CAVITY>
0

>  <SCORE.RESTR.norm>
0

>  <SCORE.SYSTEM>
0

>  <SCORE.SYSTEM.CONST>
0

>  <SCORE.SYSTEM.DIHEDRAL>
0

>  <SCORE.SYSTEM.SOLV>
0

>  <SCORE.SYSTEM.norm>
0

>  <SCORE.heavy>
23

>  <SCORE.norm>
-1.07128

>  <RMSD>
6.752

$$$$
1uui_lig
 OpenBabel11021811413D
libRbt.so/2013.1/901 2013/11/27
 23 24  0  0  0  0  0  0  0  0999 V2000
  -10.2871    0.3765    0.2427 C   0  0  0  0  0  0  0  0  0  0  0  0
  -11.9718    2.5779   -0.6331 O   0  0  0  0  0  0  0  0  0  0  0  0
  -13.2009    0.1019    4.3532 O   0  0  0  0  0  0  0  0  0  0  0  0
  -13.1830    2.9171   -1.3199 C   0  0  0  0  0  0  0  0  0  0  0  0
  -12.6594    0.8817    5.4222 C   0  0  0  0  0  0  0  0  0  0  0  0
   -9.5690    1.5397   -0.3743 N   0  0  0  0  0  0  0  0  0  0  0  0
  -12.8334    3.5279   -2.6778 C   0  0  0  0  0  0  0  0  0  0  0  0
   -8.5888    1.0869   -1.3985 C   0  0  0  0  0  0  0  0  0  0  0  0
   -8.8676    2.3417    0.6626 C   0  0  0  0  0  0  0  0  0  0  0  0
  -14.0895    4.1202   -3.3247 C   0  0  0  0  0  0  0  0  0  0  0  0
   -7.5076    0.1738   -0.7958 C   0  0  0  0  0  0  0  0  0  0  0  0
   -7.8329    1.4991    1.4278 C   0  0  0  0  0  0  0  0  0  0  0  0
  -15.0255    3.0289   -3.6759 N   0  0  0  0  0  0  0  0  0  0  0  0
   -7.4843    0.2397    0.6991 N   0  0  0  0  0  0  0  0  0  0  0  0
   -6.8867   -0.8141    1.4152 C   0  0  0  0  0  0  0  0  0  0  0  0
   -7.5653   -1.4542    2.4095 N   0  0  0  0  0  0  0  0  0  0  0  0
   -5.5737   -1.1290    1.2239 N   0  0  0  0  0  0  0  0  0  0  0  0
  -12.2759    1.9576    0.6195 C   0  0  0  0  0  0  0  0  0  0  0  0
  -11.4806    0.8767    1.0891 C   0  0  0  0  0  0  0  0  0  0  0  0
  -11.7897    0.2601    2.3333 C   0  0  0  0  0  0  0  0  0  0  0  0
  -12.8905    0.7244    3.1033 C   0  0  0  0  0  0  0  0  0  0  0  0
  -13.6820    1.8047    2.6323 C   0  0  0  0  0  0  0  0  0  0  0  0
  -13.3752    2.4202    1.3903 C   0  0  0  0  0  0  0  0  0  0  0  0
  2  4  1  0  0  0  0
  3  5  1  0  0  0  0
  4  7  1  0  0  0  0
  6  1  1  0  0  0  0
  7 10  1  0  0  0  0
  8  6  1  0  0  0  0
  8 11  1  0  0  0  0
  9  6  1  0  0  0  0
 10 13  1  0  0  0  0
 11 14  1  0  0  0  0
 12  9  1  0  0  0  0
 14 12  1  0  0  0  0
 14 15  1  0  0  0  0
 15 16  1  0  0  0  0
 15 17  1  0  0  0  0
 18  2  1  0  0  0  0
 18 23  2  0  0  0  0
 19  1  1  0  0  0  0
 19 18  1  0  0  0  0
 20 19  2  0  0  0  0
 21  3  1  0  0  0  0
 21 20  1  0  0  0  0
 22 21  2  0  0  0  0
 22 23  1  0  0  0  0
M  END
>  <CHROM.1>
-177.80995019,-170.16804389,-168.91639554,-67.26099494,-60.84324659,-127.04579542
173.27789903,-30.49081758,141.83950629,39.52491616,98.67822811,-10.78904948
1.25214923,0.61112270,-0.53094202,0.31523482,-1.21776781

>  <Name>
1uui_lig

>  <RI>
0

>  <Rbt.Current_Directory>
/home/itssahil/PROJECTS/Mol_Feturizer/New_Systems/rnas/1uui

>  <Rbt.Executable>
rbdock ($Id: //depot/dev/client3/rdock/2013.1/src/exe/rbdock.cxx#4 $)

>  <Rbt.Library>
libRbt.so (2013.1, Build901 2013/11/27)

>  <Rbt.Parameter_File>
/export/apps/rDock/src/rDock_2013.1_src/data/scripts/dock_solv.prm

>  <Rbt.Receptor>
prm/pocket_docking_4.prm

>  <SCORE>
-18.8693

>  <SCORE.INTER>
-9.50391

>  <SCORE.INTER.CONST>
1

>  <SCORE.INTER.POLAR>
-2.55663

>  <SCORE.INTER.ROT>
10

>  <SCORE.INTER.SOLV>
4.38837

>  <SCORE.INTER.VDW>
-9.54329

>  <SCORE.INTER.norm>
-0.413213

>  <SCORE.INTRA>
-9.36538

>  <SCORE.INTRA.DIHEDRAL>
-11.7456

>  <SCORE.INTRA.DIHEDRAL.0>
23.4151

>  <SCORE.INTRA.POLAR>
-0.755956

>  <SCORE.INTRA.POLAR.0>
0

>  <SCORE.INTRA.REPUL>
0

>  <SCORE.INTRA.REPUL.0>
0

>  <SCORE.INTRA.SOLV>
0.417418

>  <SCORE.INTRA.SOLV.lig_0>
-17.3568

>  <SCORE.INTRA.VDW>
-1.13106

>  <SCORE.INTRA.VDW.0>
1.0768

>  <SCORE.INTRA.norm>
-0.40719

>  <SCORE.RESTR>
0

>  <SCORE.RESTR.CAVITY>
0

>  <SCORE.RESTR.norm>
0

>  <SCORE.SYSTEM>
0

>  <SCORE.SYSTEM.CONST>
0

>  <SCORE.SYSTEM.DIHEDRAL>
0

>  <SCORE.SYSTEM.SOLV>
0

>  <SCORE.SYSTEM.norm>
0

>  <SCORE.heavy>
23

>  <SCORE.norm>
-0.820404

>  <RMSD>
6.776

$$$$
1uui_lig
 OpenBabel11021811413D
libRbt.so/2013.1/901 2013/11/27
 23 24  0  0  0  0  0  0  0  0999 V2000
   -9.4507    0.6138    0.1892 C   0  0  0  0  0  0  0  0  0  0  0  0
  -11.8782    0.9127   -1.3821 O   0  0  0  0  0  0  0  0  0  0  0  0
  -12.3056    1.3310    4.2877 O   0  0  0  0  0  0  0  0  0  0  0  0
  -12.9114    0.0570   -1.8863 C   0  0  0  0  0  0  0  0  0  0  0  0
  -12.8288    0.1098    4.8158 C   0  0  0  0  0  0  0  0  0  0  0  0
   -8.4471    1.6260    0.6559 N   0  0  0  0  0  0  0  0  0  0  0  0
  -13.9167    0.8980   -2.6745 C   0  0  0  0  0  0  0  0  0  0  0  0
   -7.2494    1.6449   -0.2272 C   0  0  0  0  0  0  0  0  0  0  0  0
   -8.0269    1.3512    2.0554 C   0  0  0  0  0  0  0  0  0  0  0  0
  -15.2792    0.1979   -2.6999 C   0  0  0  0  0  0  0  0  0  0  0  0
   -6.5268    0.2872   -0.2455 C   0  0  0  0  0  0  0  0  0  0  0  0
   -7.3919   -0.0430    2.1936 C   0  0  0  0  0  0  0  0  0  0  0  0
  -15.1647   -1.0787   -3.4399 N   0  0  0  0  0  0  0  0  0  0  0  0
   -6.9737   -0.6036    0.8710 N   0  0  0  0  0  0  0  0  0  0  0  0
   -6.7583   -1.9899    0.7603 C   0  0  0  0  0  0  0  0  0  0  0  0
   -5.4957   -2.4925    0.6494 N   0  0  0  0  0  0  0  0  0  0  0  0
   -7.8087   -2.8490    0.6262 N   0  0  0  0  0  0  0  0  0  0  0  0
  -11.9824    1.0211    0.0404 C   0  0  0  0  0  0  0  0  0  0  0  0
  -10.8226    0.8814    0.8507 C   0  0  0  0  0  0  0  0  0  0  0  0
  -10.9318    0.9855    2.2653 C   0  0  0  0  0  0  0  0  0  0  0  0
  -12.1974    1.2285    2.8650 C   0  0  0  0  0  0  0  0  0  0  0  0
  -13.3534    1.3688    2.0532 C   0  0  0  0  0  0  0  0  0  0  0  0
  -13.2458    1.2640    0.6414 C   0  0  0  0  0  0  0  0  0  0  0  0
  2  4  1  0  0  0  0
  3  5  1  0  0  0  0
  4  7  1  0  0  0  0
  6  1  1  0  0  0  0
  7 10  1  0  0  0  0
  8  6  1  0  0  0  0
  8 11  1  0  0  0  0
  9  6  1  0  0  0  0
 10 13  1  0  0  0  0
 11 14  1  0  0  0  0
 12  9  1  0  0  0  0
 14 12  1  0  0  0  0
 14 15  1  0  0  0  0
 15 16  1  0  0  0  0
 15 17  1  0  0  0  0
 18  2  1  0  0  0  0
 18 23  2  0  0  0  0
 19  1  1  0  0  0  0
 19 18  1  0  0  0  0
 20 19  2  0  0  0  0
 21  3  1  0  0  0  0
 21 20  1  0  0  0  0
 22 21  2  0  0  0  0
 22 23  1  0  0  0  0
M  END
>  <CHROM.1>
110.50259795,-155.48545498,-163.93685782,-64.48899604,-62.41216365,61.07349201
-165.04996071,178.20573184,133.35941348,126.61786540,-101.93991960,-10.46438540
0.23850444,0.53905443,-0.23551108,0.22186340,-1.83954652

>  <Name>
1uui_lig

>  <RI>
0

>  <Rbt.Current_Directory>
/home/itssahil/PROJECTS/Mol_Feturizer/New_Systems/rnas/1uui

>  <Rbt.Executable>
rbdock ($Id: //depot/dev/client3/rdock/2013.1/src/exe/rbdock.cxx#4 $)

>  <Rbt.Library>
libRbt.so (2013.1, Build901 2013/11/27)

>  <Rbt.Parameter_File>
/export/apps/rDock/src/rDock_2013.1_src/data/scripts/dock_solv.prm

>  <Rbt.Receptor>
prm/pocket_docking_8.prm

>  <SCORE>
-30.1207

>  <SCORE.INTER>
-28.2428

>  <SCORE.INTER.CONST>
1

>  <SCORE.INTER.POLAR>
-4.09864

>  <SCORE.INTER.ROT>
10

>  <SCORE.INTER.SOLV>
8.21417

>  <SCORE.INTER.VDW>
-18.1711

>  <SCORE.INTER.norm>
-1.22795

>  <SCORE.INTRA>
-1.87787

>  <SCORE.INTRA.DIHEDRAL>
-2.56567

>  <SCORE.INTRA.DIHEDRAL.0>
23.4151

>  <SCORE.INTRA.POLAR>
0

>  <SCORE.INTRA.POLAR.0>
0

>  <SCORE.INTRA.REPUL>
0

>  <SCORE.INTRA.REPUL.0>
0

>  <SCORE.INTRA.SOLV>
0.0918099

>  <SCORE.INTRA.SOLV.lig_0>
-17.3568

>  <SCORE.INTRA.VDW>
-0.640937

>  <SCORE.INTRA.VDW.0>
1.0768

>  <SCORE.INTRA.norm>
-0.0816465

>  <SCORE.RESTR>
0

>  <SCORE.RESTR.CAVITY>
0

>  <SCORE.RESTR.norm>
0

>  <SCORE.SYSTEM>
0

>  <SCORE.SYSTEM.CONST>
0

>  <SCORE.SYSTEM.DIHEDRAL>
0

>  <SCORE.SYSTEM.SOLV>
0

>  <SCORE.SYSTEM.norm>
0

>  <SCORE.heavy>
23

>  <SCORE.norm>
-1.30959

>  <RMSD>
6.776

$$$$
1uui_lig
 OpenBabel11021811413D
libRbt.so/2013.1/901 2013/11/27
 23 24  0  0  0  0  0  0  0  0999 V2000
   -6.2187    0.5473    0.7960 C   0  0  0  0  0  0  0  0  0  0  0  0
   -5.3321    0.5099    3.5644 O   0  0  0  0  0  0  0  0  0  0  0  0
   -6.1625    5.5838    1.1007 O   0  0  0  0  0  0  0  0  0  0  0  0
   -4.1915   -0.1345    2.9831 C   0  0  0  0  0  0  0  0  0  0  0  0
   -7.5034    6.0189    1.3387 C   0  0  0  0  0  0  0  0  0  0  0  0
   -7.6211    0.0619    1.0131 N   0  0  0  0  0  0  0  0  0  0  0  0
   -4.3115   -1.6452    3.1900 C   0  0  0  0  0  0  0  0  0  0  0  0
   -7.6476   -1.3966    1.3074 C   0  0  0  0  0  0  0  0  0  0  0  0
   -8.4705    0.3437   -0.1741 C   0  0  0  0  0  0  0  0  0  0  0  0
   -3.2273   -2.3714    2.3875 C   0  0  0  0  0  0  0  0  0  0  0  0
   -7.0705   -2.2276    0.1488 C   0  0  0  0  0  0  0  0  0  0  0  0
   -7.9235   -0.3409   -1.4383 C   0  0  0  0  0  0  0  0  0  0  0  0
   -3.3614   -3.8320    2.5853 N   0  0  0  0  0  0  0  0  0  0  0  0
   -6.9507   -1.4295   -1.1115 N   0  0  0  0  0  0  0  0  0  0  0  0
   -6.0690   -1.8738   -2.1144 C   0  0  0  0  0  0  0  0  0  0  0  0
   -5.1973   -2.8943   -1.8742 N   0  0  0  0  0  0  0  0  0  0  0  0
   -5.9724   -1.2087   -3.3009 N   0  0  0  0  0  0  0  0  0  0  0  0
   -5.5448    1.7817    2.9453 C   0  0  0  0  0  0  0  0  0  0  0  0
   -5.9777    1.8504    1.5929 C   0  0  0  0  0  0  0  0  0  0  0  0
   -6.1836    3.1177    0.9801 C   0  0  0  0  0  0  0  0  0  0  0  0
   -5.9567    4.3105    1.7191 C   0  0  0  0  0  0  0  0  0  0  0  0
   -5.5257    4.2386    3.0698 C   0  0  0  0  0  0  0  0  0  0  0  0
   -5.3188    2.9744    3.6821 C   0  0  0  0  0  0  0  0  0  0  0  0
  2  4  1  0  0  0  0
  3  5  1  0  0  0  0
  4  7  1  0  0  0  0
  6  1  1  0  0  0  0
  7 10  1  0  0  0  0
  8  6  1  0  0  0  0
  8 11  1  0  0  0  0
  9  6  1  0  0  0  0
 10 13  1  0  0  0  0
 11 14  1  0  0  0  0
 12  9  1  0  0  0  0
 14 12  1  0  0  0  0
 14 15  1  0  0  0  0
 15 16  1  0  0  0  0
 15 17  1  0  0  0  0
 18  2  1  0  0  0  0
 18 23  2  0  0  0  0
 19  1  1  0  0  0  0
 19 18  1  0  0  0  0
 20 19  2  0  0  0  0
 21  3  1  0  0  0  0
 21 20  1  0  0  0  0
 22 21  2  0  0  0  0
 22 23  1  0  0  0  0
M  END
>  <CHROM.1>
-156.31943827,170.95564494,-133.47650274,-179.46830146,-56.45494201,-9.48985619
59.70427263,85.12500458,68.88892809,87.22146336,91.79071271,-5.97111726,0.43404633
1.02360295,1.76447165,-0.99352579,0.48156910

>  <Name>
1uui_lig

>  <RI>
0

>  <Rbt.Current_Directory>
/home/itssahil/PROJECTS/Mol_Feturizer/New_Systems/rnas/1uui

>  <Rbt.Executable>
rbdock ($Id: //depot/dev/client3/rdock/2013.1/src/exe/rbdock.cxx#4 $)

>  <Rbt.Library>
libRbt.so (2013.1, Build901 2013/11/27)

>  <Rbt.Parameter_File>
/export/apps/rDock/src/rDock_2013.1_src/data/scripts/dock_solv.prm

>  <Rbt.Receptor>
prm/pocket_docking_7.prm

>  <SCORE>
-27.0732

>  <SCORE.INTER>
-22.4774

>  <SCORE.INTER.CONST>
1

>  <SCORE.INTER.POLAR>
-2.95307

>  <SCORE.INTER.ROT>
10

>  <SCORE.INTER.SOLV>
9.56358

>  <SCORE.INTER.VDW>
-18.5959

>  <SCORE.INTER.norm>
-0.977278

>  <SCORE.INTRA>
-4.59583

>  <SCORE.INTRA.DIHEDRAL>
-4.22739

>  <SCORE.INTRA.DIHEDRAL.0>
23.4151

>  <SCORE.INTRA.POLAR>
0

>  <SCORE.INTRA.POLAR.0>
0

>  <SCORE.INTRA.REPUL>
0

>  <SCORE.INTRA.REPUL.0>
0

>  <SCORE.INTRA.SOLV>
0.0755292

>  <SCORE.INTRA.SOLV.lig_0>
-17.3568

>  <SCORE.INTRA.VDW>
-2.5199

>  <SCORE.INTRA.VDW.0>
1.0768

>  <SCORE.INTRA.norm>
-0.199819

>  <SCORE.RESTR>
0

>  <SCORE.RESTR.CAVITY>
0

>  <SCORE.RESTR.norm>
0

>  <SCORE.SYSTEM>
0

>  <SCORE.SYSTEM.CONST>
0

>  <SCORE.SYSTEM.DIHEDRAL>
0

>  <SCORE.SYSTEM.SOLV>
0

>  <SCORE.SYSTEM.norm>
0

>  <SCORE.heavy>
23

>  <SCORE.norm>
-1.1771

>  <RMSD>
6.777

$$$$
1uui_lig
 OpenBabel11021811413D
libRbt.so/2013.1/901 2013/11/27
 23 24  0  0  0  0  0  0  0  0999 V2000
  -12.4147    1.4019    0.2953 C   0  0  0  0  0  0  0  0  0  0  0  0
  -13.9210   -1.0715    0.0408 O   0  0  0  0  0  0  0  0  0  0  0  0
  -13.2229    1.0977    5.2668 O   0  0  0  0  0  0  0  0  0  0  0  0
  -15.2402   -0.7855   -0.4407 C   0  0  0  0  0  0  0  0  0  0  0  0
  -12.4551    0.1888    6.0596 C   0  0  0  0  0  0  0  0  0  0  0  0
  -11.4903    0.4771   -0.4394 N   0  0  0  0  0  0  0  0  0  0  0  0
  -15.1784    0.4173   -1.3834 C   0  0  0  0  0  0  0  0  0  0  0  0
  -10.2738    0.1795    0.3644 C   0  0  0  0  0  0  0  0  0  0  0  0
  -11.0899    1.0562   -1.7489 C   0  0  0  0  0  0  0  0  0  0  0  0
  -14.5453    0.0060   -2.7164 C   0  0  0  0  0  0  0  0  0  0  0  0
   -9.4656    1.4505    0.6764 C   0  0  0  0  0  0  0  0  0  0  0  0
  -10.3708    2.4050   -1.5766 C   0  0  0  0  0  0  0  0  0  0  0  0
  -15.5869   -0.5550   -3.6056 N   0  0  0  0  0  0  0  0  0  0  0  0
   -9.8834    2.6070   -0.1766 N   0  0  0  0  0  0  0  0  0  0  0  0
   -9.5769    3.9118    0.2524 C   0  0  0  0  0  0  0  0  0  0  0  0
  -10.5633    4.8345    0.4378 N   0  0  0  0  0  0  0  0  0  0  0  0
   -8.2810    4.3219    0.3624 N   0  0  0  0  0  0  0  0  0  0  0  0
  -13.7478   -0.5233    1.3506 C   0  0  0  0  0  0  0  0  0  0  0  0
  -13.0180    0.6842    1.5250 C   0  0  0  0  0  0  0  0  0  0  0  0
  -12.8445    1.2232    2.8301 C   0  0  0  0  0  0  0  0  0  0  0  0
  -13.3999    0.5552    3.9551 C   0  0  0  0  0  0  0  0  0  0  0  0
  -14.1292   -0.6497    3.7776 C   0  0  0  0  0  0  0  0  0  0  0  0
  -14.3021   -1.1891    2.4758 C   0  0  0  0  0  0  0  0  0  0  0  0
  2  4  1  0  0  0  0
  3  5  1  0  0  0  0
  4  7  1  0  0  0  0
  6  1  1  0  0  0  0
  7 10  1  0  0  0  0
  8  6  1  0  0  0  0
  8 11  1  0  0  0  0
  9  6  1  0  0  0  0
 10 13  1  0  0  0  0
 11 14  1  0  0  0  0
 12  9  1  0  0  0  0
 14 12  1  0  0  0  0
 14 15  1  0  0  0  0
 15 16  1  0  0  0  0
 15 17  1  0  0  0  0
 18  2  1  0  0  0  0
 18 23  2  0  0  0  0
 19  1  1  0  0  0  0
 19 18  1  0  0  0  0
 20 19  2  0  0  0  0
 21  3  1  0  0  0  0
 21 20  1  0  0  0  0
 22 21  2  0  0  0  0
 22 23  1  0  0  0  0
M  END
>  <CHROM.1>
99.47386399,73.42383852,-67.98564671,85.45031547,62.64826099,-122.18382854
37.24809032,-46.19459993,-102.27576402,-57.46357951,-116.24049264,-12.37693475
0.98744515,0.70601856,0.14559398,-0.64721060,-1.51366759

>  <Name>
1uui_lig

>  <RI>
0

>  <Rbt.Current_Directory>
/home/itssahil/PROJECTS/Mol_Feturizer/New_Systems/rnas/1uui

>  <Rbt.Executable>
rbdock ($Id: //depot/dev/client3/rdock/2013.1/src/exe/rbdock.cxx#4 $)

>  <Rbt.Library>
libRbt.so (2013.1, Build901 2013/11/27)

>  <Rbt.Parameter_File>
/export/apps/rDock/src/rDock_2013.1_src/data/scripts/dock_solv.prm

>  <Rbt.Receptor>
prm/pocket_docking_6.prm

>  <SCORE>
-16.4505

>  <SCORE.INTER>
-9.7132

>  <SCORE.INTER.CONST>
1

>  <SCORE.INTER.POLAR>
-1.56558

>  <SCORE.INTER.ROT>
10

>  <SCORE.INTER.SOLV>
4.28547

>  <SCORE.INTER.VDW>
-12.952

>  <SCORE.INTER.norm>
-0.422313

>  <SCORE.INTRA>
-6.73732

>  <SCORE.INTRA.DIHEDRAL>
-2.38132

>  <SCORE.INTRA.DIHEDRAL.0>
23.4151

>  <SCORE.INTRA.POLAR>
-0.601966

>  <SCORE.INTRA.POLAR.0>
0

>  <SCORE.INTRA.REPUL>
0

>  <SCORE.INTRA.REPUL.0>
0

>  <SCORE.INTRA.SOLV>
0.457681

>  <SCORE.INTRA.SOLV.lig_0>
-17.3568

>  <SCORE.INTRA.VDW>
-3.72882

>  <SCORE.INTRA.VDW.0>
1.0768

>  <SCORE.INTRA.norm>
-0.292927

>  <SCORE.RESTR>
0

>  <SCORE.RESTR.CAVITY>
0

>  <SCORE.RESTR.norm>
0

>  <SCORE.SYSTEM>
0

>  <SCORE.SYSTEM.CONST>
0

>  <SCORE.SYSTEM.DIHEDRAL>
0

>  <SCORE.SYSTEM.SOLV>
0

>  <SCORE.SYSTEM.norm>
0

>  <SCORE.heavy>
23

>  <SCORE.norm>
-0.71524

>  <RMSD>
6.806

$$$$
1uui_lig
 OpenBabel11021811413D
libRbt.so/2013.1/901 2013/11/27
 23 24  0  0  0  0  0  0  0  0999 V2000
   -5.0745    1.1225    1.3143 C   0  0  0  0  0  0  0  0  0  0  0  0
   -5.5024    0.3522   -1.4561 O   0  0  0  0  0  0  0  0  0  0  0  0
   -7.2162    5.5435    0.1614 O   0  0  0  0  0  0  0  0  0  0  0  0
   -4.1357    0.3939   -1.8855 C   0  0  0  0  0  0  0  0  0  0  0  0
   -8.5273    5.4567    0.7251 C   0  0  0  0  0  0  0  0  0  0  0  0
   -5.9051    1.0366    2.5602 N   0  0  0  0  0  0  0  0  0  0  0  0
   -3.7524   -0.9683   -2.4659 C   0  0  0  0  0  0  0  0  0  0  0  0
   -5.0643    0.7286    3.7489 C   0  0  0  0  0  0  0  0  0  0  0  0
   -6.9652    0.0034    2.4216 C   0  0  0  0  0  0  0  0  0  0  0  0
   -4.5078   -1.2105   -3.7765 C   0  0  0  0  0  0  0  0  0  0  0  0
   -4.3432   -0.6227    3.6087 C   0  0  0  0  0  0  0  0  0  0  0  0
   -6.3688   -1.3890    2.1540 C   0  0  0  0  0  0  0  0  0  0  0  0
   -5.9478   -1.3959   -3.4896 N   0  0  0  0  0  0  0  0  0  0  0  0
   -4.9157   -1.4546    2.5042 N   0  0  0  0  0  0  0  0  0  0  0  0
   -4.1338   -2.4904    1.9600 C   0  0  0  0  0  0  0  0  0  0  0  0
   -4.4868   -3.0873    0.7861 N   0  0  0  0  0  0  0  0  0  0  0  0
   -3.0844   -3.0107    2.6583 N   0  0  0  0  0  0  0  0  0  0  0  0
   -5.9281    1.6557   -1.0489 C   0  0  0  0  0  0  0  0  0  0  0  0
   -5.7405    2.0767    0.2960 C   0  0  0  0  0  0  0  0  0  0  0  0
   -6.1696    3.3723    0.6975 C   0  0  0  0  0  0  0  0  0  0  0  0
   -6.7837    4.2419   -0.2444 C   0  0  0  0  0  0  0  0  0  0  0  0
   -6.9684    3.8190   -1.5870 C   0  0  0  0  0  0  0  0  0  0  0  0
   -6.5416    2.5258   -1.9885 C   0  0  0  0  0  0  0  0  0  0  0  0
  2  4  1  0  0  0  0
  3  5  1  0  0  0  0
  4  7  1  0  0  0  0
  6  1  1  0  0  0  0
  7 10  1  0  0  0  0
  8  6  1  0  0  0  0
  8 11  1  0  0  0  0
  9  6  1  0  0  0  0
 10 13  1  0  0  0  0
 11 14  1  0  0  0  0
 12  9  1  0  0  0  0
 14 12  1  0  0  0  0
 14 15  1  0  0  0  0
 15 16  1  0  0  0  0
 15 17  1  0  0  0  0
 18  2  1  0  0  0  0
 18 23  2  0  0  0  0
 19  1  1  0  0  0  0
 19 18  1  0  0  0  0
 20 19  2  0  0  0  0
 21  3  1  0  0  0  0
 21 20  1  0  0  0  0
 22 21  2  0  0  0  0
 22 23  1  0  0  0  0
M  END
>  <CHROM.1>
-173.52345412,68.17908857,-151.95386147,-68.83257377,174.07136354,-166.24400173
-79.19870582,-130.70353367,-88.43595216,-130.10489338,-85.15929355,-5.55678980
0.65344299,0.32987310,0.28227383,-1.15291605,1.60816486

>  <Name>
1uui_lig

>  <RI>
0

>  <Rbt.Current_Directory>
/home/itssahil/PROJECTS/Mol_Feturizer/New_Systems/rnas/1uui

>  <Rbt.Executable>
rbdock ($Id: //depot/dev/client3/rdock/2013.1/src/exe/rbdock.cxx#4 $)

>  <Rbt.Library>
libRbt.so (2013.1, Build901 2013/11/27)

>  <Rbt.Parameter_File>
/export/apps/rDock/src/rDock_2013.1_src/data/scripts/dock_solv.prm

>  <Rbt.Receptor>
prm/pocket_docking_7.prm

>  <SCORE>
-24.9429

>  <SCORE.INTER>
-17.0167

>  <SCORE.INTER.CONST>
1

>  <SCORE.INTER.POLAR>
-2.93107

>  <SCORE.INTER.ROT>
10

>  <SCORE.INTER.SOLV>
6.54247

>  <SCORE.INTER.VDW>
-14.0217

>  <SCORE.INTER.norm>
-0.739857

>  <SCORE.INTRA>
-7.92624

>  <SCORE.INTRA.DIHEDRAL>
-7.09263

>  <SCORE.INTRA.DIHEDRAL.0>
23.4151

>  <SCORE.INTRA.POLAR>
-0.611707

>  <SCORE.INTRA.POLAR.0>
0

>  <SCORE.INTRA.REPUL>
0

>  <SCORE.INTRA.REPUL.0>
0

>  <SCORE.INTRA.SOLV>
0.745654

>  <SCORE.INTRA.SOLV.lig_0>
-17.3568

>  <SCORE.INTRA.VDW>
-2.67294

>  <SCORE.INTRA.VDW.0>
1.0768

>  <SCORE.INTRA.norm>
-0.344619

>  <SCORE.RESTR>
0

>  <SCORE.RESTR.CAVITY>
0

>  <SCORE.RESTR.norm>
0

>  <SCORE.SYSTEM>
0

>  <SCORE.SYSTEM.CONST>
0

>  <SCORE.SYSTEM.DIHEDRAL>
0

>  <SCORE.SYSTEM.SOLV>
0

>  <SCORE.SYSTEM.norm>
0

>  <SCORE.heavy>
23

>  <SCORE.norm>
-1.08448

>  <RMSD>
6.816

$$$$
1uui_lig
 OpenBabel11021811413D
libRbt.so/2013.1/901 2013/11/27
 23 24  0  0  0  0  0  0  0  0999 V2000
   -7.1012   -0.1883    2.4441 C   0  0  0  0  0  0  0  0  0  0  0  0
   -4.4897    0.6891    3.3723 O   0  0  0  0  0  0  0  0  0  0  0  0
   -8.6487    4.5756    3.0539 O   0  0  0  0  0  0  0  0  0  0  0  0
   -3.3574    1.1243    2.6090 C   0  0  0  0  0  0  0  0  0  0  0  0
   -9.1543    4.8452    4.3638 C   0  0  0  0  0  0  0  0  0  0  0  0
   -7.2431   -0.2972    0.9550 N   0  0  0  0  0  0  0  0  0  0  0  0
   -2.4914    2.0388    3.4767 C   0  0  0  0  0  0  0  0  0  0  0  0
   -7.6681   -1.6653    0.5521 C   0  0  0  0  0  0  0  0  0  0  0  0
   -5.9673    0.0465    0.2733 C   0  0  0  0  0  0  0  0  0  0  0  0
   -1.8722    1.2375    4.6263 C   0  0  0  0  0  0  0  0  0  0  0  0
   -6.6446   -2.7331    0.9742 C   0  0  0  0  0  0  0  0  0  0  0  0
   -4.8228   -0.8846    0.7086 C   0  0  0  0  0  0  0  0  0  0  0  0
   -1.2883    2.1677    5.6184 N   0  0  0  0  0  0  0  0  0  0  0  0
   -5.3304   -2.1313    1.3617 N   0  0  0  0  0  0  0  0  0  0  0  0
   -4.4512   -2.8816    2.1645 C   0  0  0  0  0  0  0  0  0  0  0  0
   -3.9290   -2.3538    3.3081 N   0  0  0  0  0  0  0  0  0  0  0  0
   -3.9969   -4.0987    1.7497 N   0  0  0  0  0  0  0  0  0  0  0  0
   -5.5358    1.6617    3.2952 C   0  0  0  0  0  0  0  0  0  0  0  0
   -6.8296    1.2798    2.8464 C   0  0  0  0  0  0  0  0  0  0  0  0
   -7.8656    2.2516    2.7671 C   0  0  0  0  0  0  0  0  0  0  0  0
   -7.6063    3.5995    3.1360 C   0  0  0  0  0  0  0  0  0  0  0  0
   -6.3136    3.9774    3.5850 C   0  0  0  0  0  0  0  0  0  0  0  0
   -5.2786    3.0088    3.6635 C   0  0  0  0  0  0  0  0  0  0  0  0
  2  4  1  0  0  0  0
  3  5  1  0  0  0  0
  4  7  1  0  0  0  0
  6  1  1  0  0  0  0
  7 10  1  0  0  0  0
  8  6  1  0  0  0  0
  8 11  1  0  0  0  0
  9  6  1  0  0  0  0
 10 13  1  0  0  0  0
 11 14  1  0  0  0  0
 12  9  1  0  0  0  0
 14 12  1  0  0  0  0
 14 15  1  0  0  0  0
 15 16  1  0  0  0  0
 15 17  1  0  0  0  0
 18  2  1  0  0  0  0
 18 23  2  0  0  0  0
 19  1  1  0  0  0  0
 19 18  1  0  0  0  0
 20 19  2  0  0  0  0
 21  3  1  0  0  0  0
 21 20  1  0  0  0  0
 22 21  2  0  0  0  0
 22 23  1  0  0  0  0
M  END
>  <CHROM.1>
85.22956650,66.72934953,-173.09087559,-167.65578890,-169.13416800,-127.91877636
169.65665167,90.32305151,124.52058202,-107.73300486,103.11974881,-5.50293315
0.62698800,2.67072670,1.19583439,0.36878700,-2.69967658

>  <Name>
1uui_lig

>  <RI>
0

>  <Rbt.Current_Directory>
/home/itssahil/PROJECTS/Mol_Feturizer/New_Systems/rnas/1uui

>  <Rbt.Executable>
rbdock ($Id: //depot/dev/client3/rdock/2013.1/src/exe/rbdock.cxx#4 $)

>  <Rbt.Library>
libRbt.so (2013.1, Build901 2013/11/27)

>  <Rbt.Parameter_File>
/export/apps/rDock/src/rDock_2013.1_src/data/scripts/dock_solv.prm

>  <Rbt.Receptor>
prm/pocket_docking_7.prm

>  <SCORE>
-28.1202

>  <SCORE.INTER>
-19.3916

>  <SCORE.INTER.CONST>
1

>  <SCORE.INTER.POLAR>
-1.83559

>  <SCORE.INTER.ROT>
10

>  <SCORE.INTER.SOLV>
7.39813

>  <SCORE.INTER.VDW>
-19.5418

>  <SCORE.INTER.norm>
-0.843115

>  <SCORE.INTRA>
-8.72861

>  <SCORE.INTRA.DIHEDRAL>
-7.47193

>  <SCORE.INTRA.DIHEDRAL.0>
23.4151

>  <SCORE.INTRA.POLAR>
-1

>  <SCORE.INTRA.POLAR.0>
0

>  <SCORE.INTRA.REPUL>
0

>  <SCORE.INTRA.REPUL.0>
0

>  <SCORE.INTRA.SOLV>
1.10855

>  <SCORE.INTRA.SOLV.lig_0>
-17.3568

>  <SCORE.INTRA.VDW>
-2.14692

>  <SCORE.INTRA.VDW.0>
1.0768

>  <SCORE.INTRA.norm>
-0.379505

>  <SCORE.RESTR>
0

>  <SCORE.RESTR.CAVITY>
0

>  <SCORE.RESTR.norm>
0

>  <SCORE.SYSTEM>
0

>  <SCORE.SYSTEM.CONST>
0

>  <SCORE.SYSTEM.DIHEDRAL>
0

>  <SCORE.SYSTEM.SOLV>
0

>  <SCORE.SYSTEM.norm>
0

>  <SCORE.heavy>
23

>  <SCORE.norm>
-1.22262

>  <RMSD>
6.820

$$$$
1uui_lig
 OpenBabel11021811413D
libRbt.so/2013.1/901 2013/11/27
 23 24  0  0  0  0  0  0  0  0999 V2000
  -12.7788    1.0743    0.4978 C   0  0  0  0  0  0  0  0  0  0  0  0
  -12.7685    2.2637    3.1505 O   0  0  0  0  0  0  0  0  0  0  0  0
  -14.7872   -3.0414    2.6166 O   0  0  0  0  0  0  0  0  0  0  0  0
  -11.9204    2.3536    4.3022 C   0  0  0  0  0  0  0  0  0  0  0  0
  -16.2163   -3.0056    2.5941 C   0  0  0  0  0  0  0  0  0  0  0  0
  -11.8454    0.2060   -0.2924 N   0  0  0  0  0  0  0  0  0  0  0  0
  -12.7767    2.6660    5.5304 C   0  0  0  0  0  0  0  0  0  0  0  0
  -10.6415    0.9647   -0.7279 C   0  0  0  0  0  0  0  0  0  0  0  0
  -12.5298   -0.3638   -1.4829 C   0  0  0  0  0  0  0  0  0  0  0  0
  -11.9855    2.3722    6.8089 C   0  0  0  0  0  0  0  0  0  0  0  0
  -11.0072    2.1531   -1.6334 C   0  0  0  0  0  0  0  0  0  0  0  0
  -13.0548    0.7393   -2.4176 C   0  0  0  0  0  0  0  0  0  0  0  0
  -12.0035    0.9168    7.0774 N   0  0  0  0  0  0  0  0  0  0  0  0
  -12.4114    2.0618   -2.1427 N   0  0  0  0  0  0  0  0  0  0  0  0
  -13.0423    3.2314   -2.6058 C   0  0  0  0  0  0  0  0  0  0  0  0
  -13.3621    3.3761   -3.9233 N   0  0  0  0  0  0  0  0  0  0  0  0
  -13.2260    4.2982   -1.7764 N   0  0  0  0  0  0  0  0  0  0  0  0
  -13.2710    0.9313    3.0147 C   0  0  0  0  0  0  0  0  0  0  0  0
  -13.2966    0.3081    1.7371 C   0  0  0  0  0  0  0  0  0  0  0  0
  -13.8015   -1.0155    1.6063 C   0  0  0  0  0  0  0  0  0  0  0  0
  -14.2783   -1.7113    2.7504 C   0  0  0  0  0  0  0  0  0  0  0  0
  -14.2501   -1.0868    4.0249 C   0  0  0  0  0  0  0  0  0  0  0  0
  -13.7476    0.2345    4.1565 C   0  0  0  0  0  0  0  0  0  0  0  0
  2  4  1  0  0  0  0
  3  5  1  0  0  0  0
  4  7  1  0  0  0  0
  6  1  1  0  0  0  0
  7 10  1  0  0  0  0
  8  6  1  0  0  0  0
  8 11  1  0  0  0  0
  9  6  1  0  0  0  0
 10 13  1  0  0  0  0
 11 14  1  0  0  0  0
 12  9  1  0  0  0  0
 14 12  1  0  0  0  0
 14 15  1  0  0  0  0
 15 16  1  0  0  0  0
 15 17  1  0  0  0  0
 18  2  1  0  0  0  0
 18 23  2  0  0  0  0
 19  1  1  0  0  0  0
 19 18  1  0  0  0  0
 20 19  2  0  0  0  0
 21  3  1  0  0  0  0
 21 20  1  0  0  0  0
 22 21  2  0  0  0  0
 22 23  1  0  0  0  0
M  END
>  <CHROM.1>
-87.27610667,163.72614536,-136.36771982,-79.43363452,-59.98021564,113.14455450
-114.91691591,177.66939334,-136.38775043,131.98474781,-100.13192739,-12.99041787
0.89673450,1.42167984,1.37344090,-1.11591995,-1.48998668

>  <Name>
1uui_lig

>  <RI>
0

>  <Rbt.Current_Directory>
/home/itssahil/PROJECTS/Mol_Feturizer/New_Systems/rnas/1uui

>  <Rbt.Executable>
rbdock ($Id: //depot/dev/client3/rdock/2013.1/src/exe/rbdock.cxx#4 $)

>  <Rbt.Library>
libRbt.so (2013.1, Build901 2013/11/27)

>  <Rbt.Parameter_File>
/export/apps/rDock/src/rDock_2013.1_src/data/scripts/dock_solv.prm

>  <Rbt.Receptor>
prm/pocket_docking_4.prm

>  <SCORE>
-22.8472

>  <SCORE.INTER>
-20.1604

>  <SCORE.INTER.CONST>
1

>  <SCORE.INTER.POLAR>
-3.34684

>  <SCORE.INTER.ROT>
10

>  <SCORE.INTER.SOLV>
4.6047

>  <SCORE.INTER.VDW>
-14.0857

>  <SCORE.INTER.norm>
-0.876538

>  <SCORE.INTRA>
-2.68685

>  <SCORE.INTRA.DIHEDRAL>
-3.89891

>  <SCORE.INTRA.DIHEDRAL.0>
23.4151

>  <SCORE.INTRA.POLAR>
0

>  <SCORE.INTRA.POLAR.0>
0

>  <SCORE.INTRA.REPUL>
0

>  <SCORE.INTRA.REPUL.0>
0

>  <SCORE.INTRA.SOLV>
0.202644

>  <SCORE.INTRA.SOLV.lig_0>
-17.3568

>  <SCORE.INTRA.VDW>
-0.838718

>  <SCORE.INTRA.VDW.0>
1.0768

>  <SCORE.INTRA.norm>
-0.11682

>  <SCORE.RESTR>
0

>  <SCORE.RESTR.CAVITY>
0

>  <SCORE.RESTR.norm>
0

>  <SCORE.SYSTEM>
0

>  <SCORE.SYSTEM.CONST>
0

>  <SCORE.SYSTEM.DIHEDRAL>
0

>  <SCORE.SYSTEM.SOLV>
0

>  <SCORE.SYSTEM.norm>
0

>  <SCORE.heavy>
23

>  <SCORE.norm>
-0.993358

>  <RMSD>
6.832

$$$$
1uui_lig
 OpenBabel11021811413D
libRbt.so/2013.1/901 2013/11/27
 23 24  0  0  0  0  0  0  0  0999 V2000
   -7.0014    0.0752    0.8744 C   0  0  0  0  0  0  0  0  0  0  0  0
   -9.3813    1.7412    0.7662 O   0  0  0  0  0  0  0  0  0  0  0  0
   -6.1306    1.4314   -3.9072 O   0  0  0  0  0  0  0  0  0  0  0  0
  -10.3748    0.7084    0.7471 C   0  0  0  0  0  0  0  0  0  0  0  0
   -6.4703    0.2586   -4.6510 C   0  0  0  0  0  0  0  0  0  0  0  0
   -6.1160    0.9169    1.7446 N   0  0  0  0  0  0  0  0  0  0  0  0
  -11.1350    0.7216    2.0742 C   0  0  0  0  0  0  0  0  0  0  0  0
   -4.8259    1.2207    1.0679 C   0  0  0  0  0  0  0  0  0  0  0  0
   -5.8485    0.2411    3.0416 C   0  0  0  0  0  0  0  0  0  0  0  0
  -12.1856   -0.3933    2.0869 C   0  0  0  0  0  0  0  0  0  0  0  0
   -4.0332   -0.0562    0.7409 C   0  0  0  0  0  0  0  0  0  0  0  0
   -5.1589   -1.1192    2.8408 C   0  0  0  0  0  0  0  0  0  0  0  0
  -12.6526   -0.6160    3.4735 N   0  0  0  0  0  0  0  0  0  0  0  0
   -4.5587   -1.2489    1.4765 N   0  0  0  0  0  0  0  0  0  0  0  0
   -4.2565   -2.5339    0.9888 C   0  0  0  0  0  0  0  0  0  0  0  0
   -3.7675   -2.7036   -0.2726 N   0  0  0  0  0  0  0  0  0  0  0  0
   -4.5708   -3.6453    1.7137 N   0  0  0  0  0  0  0  0  0  0  0  0
   -8.5662    1.6589   -0.4064 C   0  0  0  0  0  0  0  0  0  0  0  0
   -7.3921    0.8573   -0.4010 C   0  0  0  0  0  0  0  0  0  0  0  0
   -6.5821    0.7821   -1.5682 C   0  0  0  0  0  0  0  0  0  0  0  0
   -6.9472    1.5068   -2.7352 C   0  0  0  0  0  0  0  0  0  0  0  0
   -8.1209    2.3053   -2.7379 C   0  0  0  0  0  0  0  0  0  0  0  0
   -8.9293    2.3820   -1.5733 C   0  0  0  0  0  0  0  0  0  0  0  0
  2  4  1  0  0  0  0
  3  5  1  0  0  0  0
  4  7  1  0  0  0  0
  6  1  1  0  0  0  0
  7 10  1  0  0  0  0
  8  6  1  0  0  0  0
  8 11  1  0  0  0  0
  9  6  1  0  0  0  0
 10 13  1  0  0  0  0
 11 14  1  0  0  0  0
 12  9  1  0  0  0  0
 14 12  1  0  0  0  0
 14 15  1  0  0  0  0
 15 16  1  0  0  0  0
 15 17  1  0  0  0  0
 18  2  1  0  0  0  0
 18 23  2  0  0  0  0
 19  1  1  0  0  0  0
 19 18  1  0  0  0  0
 20 19  2  0  0  0  0
 21  3  1  0  0  0  0
 21 20  1  0  0  0  0
 22 21  2  0  0  0  0
 22 23  1  0  0  0  0
M  END
>  <CHROM.1>
174.00969684,-178.91349821,-63.97891603,164.67684618,-58.41199542,-14.84593494
164.97852439,111.52005653,-89.64396829,-90.16702817,83.19683634,-7.18572051
0.13718995,0.28417812,-0.08355754,-0.32852469,2.03214279

>  <Name>
1uui_lig

>  <RI>
0

>  <Rbt.Current_Directory>
/home/itssahil/PROJECTS/Mol_Feturizer/New_Systems/rnas/1uui

>  <Rbt.Executable>
rbdock ($Id: //depot/dev/client3/rdock/2013.1/src/exe/rbdock.cxx#4 $)

>  <Rbt.Library>
libRbt.so (2013.1, Build901 2013/11/27)

>  <Rbt.Parameter_File>
/export/apps/rDock/src/rDock_2013.1_src/data/scripts/dock_solv.prm

>  <Rbt.Receptor>
prm/pocket_docking_6.prm

>  <SCORE>
-17.1335

>  <SCORE.INTER>
-10.8998

>  <SCORE.INTER.CONST>
1

>  <SCORE.INTER.POLAR>
-1.88762

>  <SCORE.INTER.ROT>
10

>  <SCORE.INTER.SOLV>
4.30027

>  <SCORE.INTER.VDW>
-12.6746

>  <SCORE.INTER.norm>
-0.473906

>  <SCORE.INTRA>
-6.23364

>  <SCORE.INTRA.DIHEDRAL>
-8.42397

>  <SCORE.INTRA.DIHEDRAL.0>
23.4151

>  <SCORE.INTRA.POLAR>
0

>  <SCORE.INTRA.POLAR.0>
0

>  <SCORE.INTRA.REPUL>
0

>  <SCORE.INTRA.REPUL.0>
0

>  <SCORE.INTRA.SOLV>
0.103229

>  <SCORE.INTRA.SOLV.lig_0>
-17.3568

>  <SCORE.INTRA.VDW>
-2.07327

>  <SCORE.INTRA.VDW.0>
1.0768

>  <SCORE.INTRA.norm>
-0.271028

>  <SCORE.RESTR>
0

>  <SCORE.RESTR.CAVITY>
0

>  <SCORE.RESTR.norm>
0

>  <SCORE.SYSTEM>
0

>  <SCORE.SYSTEM.CONST>
0

>  <SCORE.SYSTEM.DIHEDRAL>
0

>  <SCORE.SYSTEM.SOLV>
0

>  <SCORE.SYSTEM.norm>
0

>  <SCORE.heavy>
23

>  <SCORE.norm>
-0.744934

>  <RMSD>
6.836

$$$$
1uui_lig
 OpenBabel11021811413D
libRbt.so/2013.1/901 2013/11/27
 23 24  0  0  0  0  0  0  0  0999 V2000
   -6.7783   -0.5024   -0.0786 C   0  0  0  0  0  0  0  0  0  0  0  0
   -7.9918    0.3798   -2.5687 O   0  0  0  0  0  0  0  0  0  0  0  0
  -11.3070    0.1079    2.0617 O   0  0  0  0  0  0  0  0  0  0  0  0
   -7.0561    1.4583   -2.4452 C   0  0  0  0  0  0  0  0  0  0  0  0
  -11.4062    1.4039    2.6572 C   0  0  0  0  0  0  0  0  0  0  0  0
   -6.6311   -1.9939   -0.1353 N   0  0  0  0  0  0  0  0  0  0  0  0
   -6.0051    1.3371   -3.5497 C   0  0  0  0  0  0  0  0  0  0  0  0
   -6.6394   -2.5890    1.2287 C   0  0  0  0  0  0  0  0  0  0  0  0
   -5.3773   -2.3777   -0.8361 C   0  0  0  0  0  0  0  0  0  0  0  0
   -6.6733    1.4534   -4.9234 C   0  0  0  0  0  0  0  0  0  0  0  0
   -5.4780   -2.0663    2.0913 C   0  0  0  0  0  0  0  0  0  0  0  0
   -4.1355   -1.8065   -0.1306 C   0  0  0  0  0  0  0  0  0  0  0  0
   -6.4042    0.2281   -5.7088 N   0  0  0  0  0  0  0  0  0  0  0  0
   -4.4337   -1.3763    1.2710 N   0  0  0  0  0  0  0  0  0  0  0  0
   -3.5519   -0.4831    1.9076 C   0  0  0  0  0  0  0  0  0  0  0  0
   -3.6434    0.8599    1.6911 N   0  0  0  0  0  0  0  0  0  0  0  0
   -2.5044   -0.9475    2.6469 N   0  0  0  0  0  0  0  0  0  0  0  0
   -8.8207    0.3145   -1.4047 C   0  0  0  0  0  0  0  0  0  0  0  0
   -8.2720   -0.1119   -0.1644 C   0  0  0  0  0  0  0  0  0  0  0  0
   -9.1014   -0.1796    0.9895 C   0  0  0  0  0  0  0  0  0  0  0  0
  -10.4741    0.1784    0.9008 C   0  0  0  0  0  0  0  0  0  0  0  0
  -11.0188    0.6049   -0.3388 C   0  0  0  0  0  0  0  0  0  0  0  0
  -10.1923    0.6718   -1.4913 C   0  0  0  0  0  0  0  0  0  0  0  0
  2  4  1  0  0  0  0
  3  5  1  0  0  0  0
  4  7  1  0  0  0  0
  6  1  1  0  0  0  0
  7 10  1  0  0  0  0
  8  6  1  0  0  0  0
  8 11  1  0  0  0  0
  9  6  1  0  0  0  0
 10 13  1  0  0  0  0
 11 14  1  0  0  0  0
 12  9  1  0  0  0  0
 14 12  1  0  0  0  0
 14 15  1  0  0  0  0
 15 16  1  0  0  0  0
 15 17  1  0  0  0  0
 18  2  1  0  0  0  0
 18 23  2  0  0  0  0
 19  1  1  0  0  0  0
 19 18  1  0  0  0  0
 20 19  2  0  0  0  0
 21  3  1  0  0  0  0
 21 20  1  0  0  0  0
 22 21  2  0  0  0  0
 22 23  1  0  0  0  0
M  END
>  <CHROM.1>
168.55662284,62.02759237,-91.43212957,-121.26113721,161.11683882,-109.22516547
-82.83757276,-90.20620219,-70.41619531,-99.34044858,97.22089267,-7.05686914
-0.23755007,-0.29555074,0.38700404,-0.21901381,1.79511972

>  <Name>
1uui_lig

>  <RI>
0

>  <Rbt.Current_Directory>
/home/itssahil/PROJECTS/Mol_Feturizer/New_Systems/rnas/1uui

>  <Rbt.Executable>
rbdock ($Id: //depot/dev/client3/rdock/2013.1/src/exe/rbdock.cxx#4 $)

>  <Rbt.Library>
libRbt.so (2013.1, Build901 2013/11/27)

>  <Rbt.Parameter_File>
/export/apps/rDock/src/rDock_2013.1_src/data/scripts/dock_solv.prm

>  <Rbt.Receptor>
prm/pocket_docking_8.prm

>  <SCORE>
-29.1954

>  <SCORE.INTER>
-25.818

>  <SCORE.INTER.CONST>
1

>  <SCORE.INTER.POLAR>
-4.33431

>  <SCORE.INTER.ROT>
10

>  <SCORE.INTER.SOLV>
5.51875

>  <SCORE.INTER.VDW>
-14.8706

>  <SCORE.INTER.norm>
-1.12252

>  <SCORE.INTRA>
-3.37737

>  <SCORE.INTRA.DIHEDRAL>
-1.20345

>  <SCORE.INTRA.DIHEDRAL.0>
23.4151

>  <SCORE.INTRA.POLAR>
0

>  <SCORE.INTRA.POLAR.0>
0

>  <SCORE.INTRA.REPUL>
0

>  <SCORE.INTRA.REPUL.0>
0

>  <SCORE.INTRA.SOLV>
0.185864

>  <SCORE.INTRA.SOLV.lig_0>
-17.3568

>  <SCORE.INTRA.VDW>
-2.86858

>  <SCORE.INTRA.VDW.0>
1.0768

>  <SCORE.INTRA.norm>
-0.146842

>  <SCORE.RESTR>
0

>  <SCORE.RESTR.CAVITY>
0

>  <SCORE.RESTR.norm>
0

>  <SCORE.SYSTEM>
0

>  <SCORE.SYSTEM.CONST>
0

>  <SCORE.SYSTEM.DIHEDRAL>
0

>  <SCORE.SYSTEM.SOLV>
0

>  <SCORE.SYSTEM.norm>
0

>  <SCORE.heavy>
23

>  <SCORE.norm>
-1.26936

>  <RMSD>
6.844

$$$$
1uui_lig
 OpenBabel11021811413D
libRbt.so/2013.1/901 2013/11/27
 23 24  0  0  0  0  0  0  0  0999 V2000
   -7.6505    1.6085   -0.1486 C   0  0  0  0  0  0  0  0  0  0  0  0
   -8.3331    4.4181   -0.4512 O   0  0  0  0  0  0  0  0  0  0  0  0
  -11.2738    1.3563    3.3543 O   0  0  0  0  0  0  0  0  0  0  0  0
   -9.2202    4.9312   -1.4531 C   0  0  0  0  0  0  0  0  0  0  0  0
  -12.2159    0.5265    2.6703 C   0  0  0  0  0  0  0  0  0  0  0  0
   -8.2482    0.8121   -1.2702 N   0  0  0  0  0  0  0  0  0  0  0  0
   -8.5196    6.0603   -2.2102 C   0  0  0  0  0  0  0  0  0  0  0  0
   -9.0945   -0.2973   -0.7529 C   0  0  0  0  0  0  0  0  0  0  0  0
   -7.1874    0.2570   -2.1517 C   0  0  0  0  0  0  0  0  0  0  0  0
   -9.4634    6.6488   -3.2638 C   0  0  0  0  0  0  0  0  0  0  0  0
   -8.2859   -1.2859    0.1043 C   0  0  0  0  0  0  0  0  0  0  0  0
   -6.2298   -0.6636   -1.3761 C   0  0  0  0  0  0  0  0  0  0  0  0
   -9.0651    6.1699   -4.6063 N   0  0  0  0  0  0  0  0  0  0  0  0
   -6.8105   -1.1064   -0.0703 N   0  0  0  0  0  0  0  0  0  0  0  0
   -5.9449   -1.6003    0.9233 C   0  0  0  0  0  0  0  0  0  0  0  0
   -4.7595   -0.9802    1.1864 N   0  0  0  0  0  0  0  0  0  0  0  0
   -6.2075   -2.7825    1.5502 N   0  0  0  0  0  0  0  0  0  0  0  0
   -9.0670    3.6488    0.5057 C   0  0  0  0  0  0  0  0  0  0  0  0
   -8.7694    2.2707    0.6885 C   0  0  0  0  0  0  0  0  0  0  0  0
   -9.5050    1.5085    1.6382 C   0  0  0  0  0  0  0  0  0  0  0  0
  -10.5339    2.1246    2.4011 C   0  0  0  0  0  0  0  0  0  0  0  0
  -10.8278    3.5012    2.2173 C   0  0  0  0  0  0  0  0  0  0  0  0
  -10.0951    4.2626    1.2690 C   0  0  0  0  0  0  0  0  0  0  0  0
  2  4  1  0  0  0  0
  3  5  1  0  0  0  0
  4  7  1  0  0  0  0
  6  1  1  0  0  0  0
  7 10  1  0  0  0  0
  8  6  1  0  0  0  0
  8 11  1  0  0  0  0
  9  6  1  0  0  0  0
 10 13  1  0  0  0  0
 11 14  1  0  0  0  0
 12  9  1  0  0  0  0
 14 12  1  0  0  0  0
 14 15  1  0  0  0  0
 15 16  1  0  0  0  0
 15 17  1  0  0  0  0
 18  2  1  0  0  0  0
 18 23  2  0  0  0  0
 19  1  1  0  0  0  0
 19 18  1  0  0  0  0
 20 19  2  0  0  0  0
 21  3  1  0  0  0  0
 21 20  1  0  0  0  0
 22 21  2  0  0  0  0
 22 23  1  0  0  0  0
M  END
>  <CHROM.1>
163.49289993,-178.55235431,-62.42916727,-104.33871387,-52.51019599,-148.60822857
59.26344825,66.36758846,119.05589018,-101.63098597,-75.97108868,-8.54659602
1.78294069,-0.01490517,-1.15601541,0.73739023,-0.68728945

>  <Name>
1uui_lig

>  <RI>
0

>  <Rbt.Current_Directory>
/home/itssahil/PROJECTS/Mol_Feturizer/New_Systems/rnas/1uui

>  <Rbt.Executable>
rbdock ($Id: //depot/dev/client3/rdock/2013.1/src/exe/rbdock.cxx#4 $)

>  <Rbt.Library>
libRbt.so (2013.1, Build901 2013/11/27)

>  <Rbt.Parameter_File>
/export/apps/rDock/src/rDock_2013.1_src/data/scripts/dock_solv.prm

>  <Rbt.Receptor>
prm/pocket_docking_5.prm

>  <SCORE>
-16.7868

>  <SCORE.INTER>
-12.6225

>  <SCORE.INTER.CONST>
1

>  <SCORE.INTER.POLAR>
-2.50036

>  <SCORE.INTER.ROT>
10

>  <SCORE.INTER.SOLV>
5.49917

>  <SCORE.INTER.VDW>
-12.1802

>  <SCORE.INTER.norm>
-0.548805

>  <SCORE.INTRA>
-4.17059

>  <SCORE.INTRA.DIHEDRAL>
-4.73339

>  <SCORE.INTRA.DIHEDRAL.0>
23.4151

>  <SCORE.INTRA.POLAR>
0

>  <SCORE.INTRA.POLAR.0>
0

>  <SCORE.INTRA.REPUL>
0

>  <SCORE.INTRA.REPUL.0>
0

>  <SCORE.INTRA.SOLV>
0.116573

>  <SCORE.INTRA.SOLV.lig_0>
-17.3568

>  <SCORE.INTRA.VDW>
-1.86219

>  <SCORE.INTRA.VDW.0>
1.0768

>  <SCORE.INTRA.norm>
-0.18133

>  <SCORE.RESTR>
0.0063266

>  <SCORE.RESTR.CAVITY>
0.0063266

>  <SCORE.RESTR.norm>
0.00027507

>  <SCORE.SYSTEM>
0

>  <SCORE.SYSTEM.CONST>
0

>  <SCORE.SYSTEM.DIHEDRAL>
0

>  <SCORE.SYSTEM.SOLV>
0

>  <SCORE.SYSTEM.norm>
0

>  <SCORE.heavy>
23

>  <SCORE.norm>
-0.72986

>  <RMSD>
6.855

$$$$
1uui_lig
 OpenBabel11021811413D
libRbt.so/2013.1/901 2013/11/27
 23 24  0  0  0  0  0  0  0  0999 V2000
  -11.6788   -0.1538    1.6914 C   0  0  0  0  0  0  0  0  0  0  0  0
  -14.1500   -1.5943    1.1725 O   0  0  0  0  0  0  0  0  0  0  0  0
  -13.1980    0.2355    6.4875 O   0  0  0  0  0  0  0  0  0  0  0  0
  -15.3783   -1.0479    0.6757 C   0  0  0  0  0  0  0  0  0  0  0  0
  -13.2368    1.6644    6.5171 C   0  0  0  0  0  0  0  0  0  0  0  0
  -11.9477    1.1729    1.0457 N   0  0  0  0  0  0  0  0  0  0  0  0
  -15.6271   -1.5801   -0.7364 C   0  0  0  0  0  0  0  0  0  0  0  0
  -12.0793    1.0376   -0.4305 C   0  0  0  0  0  0  0  0  0  0  0  0
  -10.8678    2.1453    1.3601 C   0  0  0  0  0  0  0  0  0  0  0  0
  -14.6964   -0.8796   -1.7315 C   0  0  0  0  0  0  0  0  0  0  0  0
  -10.7947    0.4889   -1.0745 C   0  0  0  0  0  0  0  0  0  0  0  0
   -9.4971    1.6493    0.8687 C   0  0  0  0  0  0  0  0  0  0  0  0
  -14.8802   -1.4672   -3.0774 N   0  0  0  0  0  0  0  0  0  0  0  0
   -9.6254    0.5545   -0.1428 N   0  0  0  0  0  0  0  0  0  0  0  0
   -8.5147   -0.2738   -0.3891 C   0  0  0  0  0  0  0  0  0  0  0  0
   -7.3751    0.2336   -0.9395 N   0  0  0  0  0  0  0  0  0  0  0  0
   -8.5989   -1.6229   -0.2092 N   0  0  0  0  0  0  0  0  0  0  0  0
  -13.9108   -1.1308    2.5044 C   0  0  0  0  0  0  0  0  0  0  0  0
  -12.7158   -0.4223    2.8066 C   0  0  0  0  0  0  0  0  0  0  0  0
  -12.4802    0.0327    4.1337 C   0  0  0  0  0  0  0  0  0  0  0  0
  -13.4375   -0.2211    5.1532 C   0  0  0  0  0  0  0  0  0  0  0  0
  -14.6303   -0.9278    4.8481 C   0  0  0  0  0  0  0  0  0  0  0  0
  -14.8661   -1.3834    3.5243 C   0  0  0  0  0  0  0  0  0  0  0  0
  2  4  1  0  0  0  0
  3  5  1  0  0  0  0
  4  7  1  0  0  0  0
  6  1  1  0  0  0  0
  7 10  1  0  0  0  0
  8  6  1  0  0  0  0
  8 11  1  0  0  0  0
  9  6  1  0  0  0  0
 10 13  1  0  0  0  0
 11 14  1  0  0  0  0
 12  9  1  0  0  0  0
 14 12  1  0  0  0  0
 14 15  1  0  0  0  0
 15 16  1  0  0  0  0
 15 17  1  0  0  0  0
 18  2  1  0  0  0  0
 18 23  2  0  0  0  0
 19  1  1  0  0  0  0
 19 18  1  0  0  0  0
 20 19  2  0  0  0  0
 21  3  1  0  0  0  0
 21 20  1  0  0  0  0
 22 21  2  0  0  0  0
 22 23  1  0  0  0  0
M  END
>  <CHROM.1>
-178.82017418,-74.79781359,-126.09543157,176.14285797,47.32757220,103.17617957
-104.64976569,-46.10737524,-122.13024991,91.95643398,67.53955262,-12.32225014
-0.15517287,1.39730509,-0.93966144,0.28676620,1.38952897

>  <Name>
1uui_lig

>  <RI>
0

>  <Rbt.Current_Directory>
/home/itssahil/PROJECTS/Mol_Feturizer/New_Systems/rnas/1uui

>  <Rbt.Executable>
rbdock ($Id: //depot/dev/client3/rdock/2013.1/src/exe/rbdock.cxx#4 $)

>  <Rbt.Library>
libRbt.so (2013.1, Build901 2013/11/27)

>  <Rbt.Parameter_File>
/export/apps/rDock/src/rDock_2013.1_src/data/scripts/dock_solv.prm

>  <Rbt.Receptor>
prm/pocket_docking_7.prm

>  <SCORE>
-25.7465

>  <SCORE.INTER>
-19.6004

>  <SCORE.INTER.CONST>
1

>  <SCORE.INTER.POLAR>
-1.95234

>  <SCORE.INTER.ROT>
10

>  <SCORE.INTER.SOLV>
8.40222

>  <SCORE.INTER.VDW>
-19.6266

>  <SCORE.INTER.norm>
-0.852192

>  <SCORE.INTRA>
-6.14606

>  <SCORE.INTRA.DIHEDRAL>
-6.78741

>  <SCORE.INTRA.DIHEDRAL.0>
23.4151

>  <SCORE.INTRA.POLAR>
0

>  <SCORE.INTRA.POLAR.0>
0

>  <SCORE.INTRA.REPUL>
0

>  <SCORE.INTRA.REPUL.0>
0

>  <SCORE.INTRA.SOLV>
0.108829

>  <SCORE.INTRA.SOLV.lig_0>
-17.3568

>  <SCORE.INTRA.VDW>
-2.80676

>  <SCORE.INTRA.VDW.0>
1.0768

>  <SCORE.INTRA.norm>
-0.26722

>  <SCORE.RESTR>
0

>  <SCORE.RESTR.CAVITY>
0

>  <SCORE.RESTR.norm>
0

>  <SCORE.SYSTEM>
0

>  <SCORE.SYSTEM.CONST>
0

>  <SCORE.SYSTEM.DIHEDRAL>
0

>  <SCORE.SYSTEM.SOLV>
0

>  <SCORE.SYSTEM.norm>
0

>  <SCORE.heavy>
23

>  <SCORE.norm>
-1.11941

>  <RMSD>
6.886

$$$$
1uui_lig
 OpenBabel11021811413D
libRbt.so/2013.1/901 2013/11/27
 23 24  0  0  0  0  0  0  0  0999 V2000
  -12.1965    0.4075    1.9878 C   0  0  0  0  0  0  0  0  0  0  0  0
  -13.8589   -1.6797    3.1418 O   0  0  0  0  0  0  0  0  0  0  0  0
  -11.6897    2.2487    6.6584 O   0  0  0  0  0  0  0  0  0  0  0  0
  -15.1660   -1.2854    2.7059 C   0  0  0  0  0  0  0  0  0  0  0  0
  -12.7530    2.9741    7.2808 C   0  0  0  0  0  0  0  0  0  0  0  0
  -13.3372    1.0549    1.2602 N   0  0  0  0  0  0  0  0  0  0  0  0
  -15.6320   -2.2350    1.6012 C   0  0  0  0  0  0  0  0  0  0  0  0
  -13.6771    0.3096    0.0178 C   0  0  0  0  0  0  0  0  0  0  0  0
  -13.0173    2.4664    0.9198 C   0  0  0  0  0  0  0  0  0  0  0  0
  -15.8249   -3.6446    2.1692 C   0  0  0  0  0  0  0  0  0  0  0  0
  -12.4969    0.2657   -0.9677 C   0  0  0  0  0  0  0  0  0  0  0  0
  -11.7692    2.5656    0.0262 C   0  0  0  0  0  0  0  0  0  0  0  0
  -15.9588   -4.6114    1.0566 N   0  0  0  0  0  0  0  0  0  0  0  0
  -11.4322    1.2567   -0.6155 N   0  0  0  0  0  0  0  0  0  0  0  0
  -10.1330    1.0647   -1.1210 C   0  0  0  0  0  0  0  0  0  0  0  0
   -9.8799    1.1816   -2.4556 N   0  0  0  0  0  0  0  0  0  0  0  0
   -9.1281    0.6267   -0.3098 N   0  0  0  0  0  0  0  0  0  0  0  0
  -13.3167   -0.6907    4.0217 C   0  0  0  0  0  0  0  0  0  0  0  0
  -12.4973    0.3492    3.5034 C   0  0  0  0  0  0  0  0  0  0  0  0
  -11.9566    1.3279    4.3830 C   0  0  0  0  0  0  0  0  0  0  0  0
  -12.2358    1.2648    5.7753 C   0  0  0  0  0  0  0  0  0  0  0  0
  -13.0553    0.2260    6.2895 C   0  0  0  0  0  0  0  0  0  0  0  0
  -13.5946   -0.7520    5.4128 C   0  0  0  0  0  0  0  0  0  0  0  0
  2  4  1  0  0  0  0
  3  5  1  0  0  0  0
  4  7  1  0  0  0  0
  6  1  1  0  0  0  0
  7 10  1  0  0  0  0
  8  6  1  0  0  0  0
  8 11  1  0  0  0  0
  9  6  1  0  0  0  0
 10 13  1  0  0  0  0
 11 14  1  0  0  0  0
 12  9  1  0  0  0  0
 14 12  1  0  0  0  0
 14 15  1  0  0  0  0
 15 16  1  0  0  0  0
 15 17  1  0  0  0  0
 18  2  1  0  0  0  0
 18 23  2  0  0  0  0
 19  1  1  0  0  0  0
 19 18  1  0  0  0  0
 20 19  2  0  0  0  0
 21  3  1  0  0  0  0
 21 20  1  0  0  0  0
 22 21  2  0  0  0  0
 22 23  1  0  0  0  0
M  END
>  <CHROM.1>
171.03166058,65.89331436,-136.07498373,-166.67248918,-52.89470303,67.52345335
-12.97015350,-17.89208418,-92.98019531,81.77150515,117.98818853,-12.80880720
0.17218704,2.22137497,-1.08801417,0.82768978,1.28705253

>  <Name>
1uui_lig

>  <RI>
0

>  <Rbt.Current_Directory>
/home/itssahil/PROJECTS/Mol_Feturizer/New_Systems/rnas/1uui

>  <Rbt.Executable>
rbdock ($Id: //depot/dev/client3/rdock/2013.1/src/exe/rbdock.cxx#4 $)

>  <Rbt.Library>
libRbt.so (2013.1, Build901 2013/11/27)

>  <Rbt.Parameter_File>
/export/apps/rDock/src/rDock_2013.1_src/data/scripts/dock_solv.prm

>  <Rbt.Receptor>
prm/pocket_docking_5.prm

>  <SCORE>
-26.0821

>  <SCORE.INTER>
-19.9236

>  <SCORE.INTER.CONST>
1

>  <SCORE.INTER.POLAR>
-2.32626

>  <SCORE.INTER.ROT>
10

>  <SCORE.INTER.SOLV>
5.44054

>  <SCORE.INTER.VDW>
-17.6084

>  <SCORE.INTER.norm>
-0.866243

>  <SCORE.INTRA>
-6.16997

>  <SCORE.INTRA.DIHEDRAL>
-6.28033

>  <SCORE.INTRA.DIHEDRAL.0>
23.4151

>  <SCORE.INTRA.POLAR>
0

>  <SCORE.INTRA.POLAR.0>
0

>  <SCORE.INTRA.REPUL>
0

>  <SCORE.INTRA.REPUL.0>
0

>  <SCORE.INTRA.SOLV>
0.20474

>  <SCORE.INTRA.SOLV.lig_0>
-17.3568

>  <SCORE.INTRA.VDW>
-3.13218

>  <SCORE.INTRA.VDW.0>
1.0768

>  <SCORE.INTRA.norm>
-0.26826

>  <SCORE.RESTR>
0.0114121

>  <SCORE.RESTR.CAVITY>
0.0114121

>  <SCORE.RESTR.norm>
0.000496176

>  <SCORE.SYSTEM>
0

>  <SCORE.SYSTEM.CONST>
0

>  <SCORE.SYSTEM.DIHEDRAL>
0

>  <SCORE.SYSTEM.SOLV>
0

>  <SCORE.SYSTEM.norm>
0

>  <SCORE.heavy>
23

>  <SCORE.norm>
-1.13401

>  <RMSD>
6.888

$$$$
1uui_lig
 OpenBabel11021811413D
libRbt.so/2013.1/901 2013/11/27
 23 24  0  0  0  0  0  0  0  0999 V2000
   -6.1023    0.2277    0.5652 C   0  0  0  0  0  0  0  0  0  0  0  0
   -6.2154    2.3133   -1.4568 O   0  0  0  0  0  0  0  0  0  0  0  0
  -10.0713    2.4589    2.7402 O   0  0  0  0  0  0  0  0  0  0  0  0
   -6.8606    2.0108   -2.7003 C   0  0  0  0  0  0  0  0  0  0  0  0
   -9.8948    3.6493    3.5120 C   0  0  0  0  0  0  0  0  0  0  0  0
   -6.5121   -0.8300   -0.4161 N   0  0  0  0  0  0  0  0  0  0  0  0
   -5.8916    2.2966   -3.8486 C   0  0  0  0  0  0  0  0  0  0  0  0
   -7.3464   -1.8761    0.2353 C   0  0  0  0  0  0  0  0  0  0  0  0
   -5.3217   -1.4638   -1.0420 C   0  0  0  0  0  0  0  0  0  0  0  0
   -6.5728    2.0132   -5.1913 C   0  0  0  0  0  0  0  0  0  0  0  0
   -6.5889   -2.5954    1.3642 C   0  0  0  0  0  0  0  0  0  0  0  0
   -4.4108   -2.1211    0.0088 C   0  0  0  0  0  0  0  0  0  0  0  0
   -6.5018    0.5643   -5.4850 N   0  0  0  0  0  0  0  0  0  0  0  0
   -5.1166   -2.3325    1.3109 N   0  0  0  0  0  0  0  0  0  0  0  0
   -4.3487   -2.5368    2.4724 C   0  0  0  0  0  0  0  0  0  0  0  0
   -4.3078   -1.5934    3.4559 N   0  0  0  0  0  0  0  0  0  0  0  0
   -3.5246   -3.6179    2.5809 N   0  0  0  0  0  0  0  0  0  0  0  0
   -7.1794    2.3500   -0.4007 C   0  0  0  0  0  0  0  0  0  0  0  0
   -7.1641    1.3509    0.6106 C   0  0  0  0  0  0  0  0  0  0  0  0
   -8.1277    1.3889    1.6565 C   0  0  0  0  0  0  0  0  0  0  0  0
   -9.1020    2.4233    1.6888 C   0  0  0  0  0  0  0  0  0  0  0  0
   -9.1140    3.4202    0.6782 C   0  0  0  0  0  0  0  0  0  0  0  0
   -8.1535    3.3827   -0.3667 C   0  0  0  0  0  0  0  0  0  0  0  0
  2  4  1  0  0  0  0
  3  5  1  0  0  0  0
  4  7  1  0  0  0  0
  6  1  1  0  0  0  0
  7 10  1  0  0  0  0
  8  6  1  0  0  0  0
  8 11  1  0  0  0  0
  9  6  1  0  0  0  0
 10 13  1  0  0  0  0
 11 14  1  0  0  0  0
 12  9  1  0  0  0  0
 14 12  1  0  0  0  0
 14 15  1  0  0  0  0
 15 16  1  0  0  0  0
 15 17  1  0  0  0  0
 18  2  1  0  0  0  0
 18 23  2  0  0  0  0
 19  1  1  0  0  0  0
 19 18  1  0  0  0  0
 20 19  2  0  0  0  0
 21  3  1  0  0  0  0
 21 20  1  0  0  0  0
 22 21  2  0  0  0  0
 22 23  1  0  0  0  0
M  END
>  <CHROM.1>
166.83904478,-178.59269418,-89.22379382,-82.37412354,29.43512399,-80.74594199
29.38372146,-174.37377328,111.81978847,-79.84462994,116.69320419,-6.67495190
0.42267671,0.06271034,0.83151780,-0.88365089,1.89179939

>  <Name>
1uui_lig

>  <RI>
0

>  <Rbt.Current_Directory>
/home/itssahil/PROJECTS/Mol_Feturizer/New_Systems/rnas/1uui

>  <Rbt.Executable>
rbdock ($Id: //depot/dev/client3/rdock/2013.1/src/exe/rbdock.cxx#4 $)

>  <Rbt.Library>
libRbt.so (2013.1, Build901 2013/11/27)

>  <Rbt.Parameter_File>
/export/apps/rDock/src/rDock_2013.1_src/data/scripts/dock_solv.prm

>  <Rbt.Receptor>
prm/pocket_docking_8.prm

>  <SCORE>
-28.9855

>  <SCORE.INTER>
-23.896

>  <SCORE.INTER.CONST>
1

>  <SCORE.INTER.POLAR>
-3.67479

>  <SCORE.INTER.ROT>
10

>  <SCORE.INTER.SOLV>
6.97814

>  <SCORE.INTER.VDW>
-16.2741

>  <SCORE.INTER.norm>
-1.03896

>  <SCORE.INTRA>
-5.08944

>  <SCORE.INTRA.DIHEDRAL>
-5.02086

>  <SCORE.INTRA.DIHEDRAL.0>
23.4151

>  <SCORE.INTRA.POLAR>
0

>  <SCORE.INTRA.POLAR.0>
0

>  <SCORE.INTRA.REPUL>
0

>  <SCORE.INTRA.REPUL.0>
0

>  <SCORE.INTRA.SOLV>
0.198368

>  <SCORE.INTRA.SOLV.lig_0>
-17.3568

>  <SCORE.INTRA.VDW>
-2.67819

>  <SCORE.INTRA.VDW.0>
1.0768

>  <SCORE.INTRA.norm>
-0.22128

>  <SCORE.RESTR>
0

>  <SCORE.RESTR.CAVITY>
0

>  <SCORE.RESTR.norm>
0

>  <SCORE.SYSTEM>
0

>  <SCORE.SYSTEM.CONST>
0

>  <SCORE.SYSTEM.DIHEDRAL>
0

>  <SCORE.SYSTEM.SOLV>
0

>  <SCORE.SYSTEM.norm>
0

>  <SCORE.heavy>
23

>  <SCORE.norm>
-1.26024

>  <RMSD>
6.891

$$$$
1uui_lig
 OpenBabel11021811413D
libRbt.so/2013.1/901 2013/11/27
 23 24  0  0  0  0  0  0  0  0999 V2000
   -7.3145    2.0477    2.2598 C   0  0  0  0  0  0  0  0  0  0  0  0
   -4.6984    3.1644    2.8604 O   0  0  0  0  0  0  0  0  0  0  0  0
   -9.2509    5.5821    5.2964 O   0  0  0  0  0  0  0  0  0  0  0  0
   -3.6460    3.0171    3.8221 C   0  0  0  0  0  0  0  0  0  0  0  0
   -9.6449    4.8195    6.4397 C   0  0  0  0  0  0  0  0  0  0  0  0
   -7.0296    2.4584    0.8457 N   0  0  0  0  0  0  0  0  0  0  0  0
   -2.5914    2.0591    3.2662 C   0  0  0  0  0  0  0  0  0  0  0  0
   -8.1101    2.0103   -0.0742 C   0  0  0  0  0  0  0  0  0  0  0  0
   -5.7270    1.9091    0.3853 C   0  0  0  0  0  0  0  0  0  0  0  0
   -1.4495    1.8952    4.2743 C   0  0  0  0  0  0  0  0  0  0  0  0
   -8.2592    0.4794   -0.0838 C   0  0  0  0  0  0  0  0  0  0  0  0
   -5.7066    0.3722    0.4446 C   0  0  0  0  0  0  0  0  0  0  0  0
   -1.9581    1.2255    5.4922 N   0  0  0  0  0  0  0  0  0  0  0  0
   -7.0837   -0.2046    0.5406 N   0  0  0  0  0  0  0  0  0  0  0  0
   -7.2343   -1.5254    1.0025 C   0  0  0  0  0  0  0  0  0  0  0  0
   -7.3701   -1.7872    2.3337 N   0  0  0  0  0  0  0  0  0  0  0  0
   -7.1132   -2.5802    0.1468 N   0  0  0  0  0  0  0  0  0  0  0  0
   -5.8418    3.7669    3.4735 C   0  0  0  0  0  0  0  0  0  0  0  0
   -7.1419    3.2559    3.2093 C   0  0  0  0  0  0  0  0  0  0  0  0
   -8.2764    3.8613    3.8178 C   0  0  0  0  0  0  0  0  0  0  0  0
   -8.1088    4.9735    4.6869 C   0  0  0  0  0  0  0  0  0  0  0  0
   -6.8092    5.4806    4.9497 C   0  0  0  0  0  0  0  0  0  0  0  0
   -5.6763    4.8780    4.3422 C   0  0  0  0  0  0  0  0  0  0  0  0
  2  4  1  0  0  0  0
  3  5  1  0  0  0  0
  4  7  1  0  0  0  0
  6  1  1  0  0  0  0
  7 10  1  0  0  0  0
  8  6  1  0  0  0  0
  8 11  1  0  0  0  0
  9  6  1  0  0  0  0
 10 13  1  0  0  0  0
 11 14  1  0  0  0  0
 12  9  1  0  0  0  0
 14 12  1  0  0  0  0
 14 15  1  0  0  0  0
 15 16  1  0  0  0  0
 15 17  1  0  0  0  0
 18  2  1  0  0  0  0
 18 23  2  0  0  0  0
 19  1  1  0  0  0  0
 19 18  1  0  0  0  0
 20 19  2  0  0  0  0
 21  3  1  0  0  0  0
 21 20  1  0  0  0  0
 22 21  2  0  0  0  0
 22 23  1  0  0  0  0
M  END
>  <CHROM.1>
165.30167194,179.54261385,-130.74655667,65.55015594,-59.73742010,-103.08350324
42.86759811,-57.83224291,-136.27168936,-70.81334771,81.01562886,-6.32015123
2.15009010,2.77402077,1.55233188,0.25434956,-2.45133017

>  <Name>
1uui_lig

>  <RI>
0

>  <Rbt.Current_Directory>
/home/itssahil/PROJECTS/Mol_Feturizer/New_Systems/rnas/1uui

>  <Rbt.Executable>
rbdock ($Id: //depot/dev/client3/rdock/2013.1/src/exe/rbdock.cxx#4 $)

>  <Rbt.Library>
libRbt.so (2013.1, Build901 2013/11/27)

>  <Rbt.Parameter_File>
/export/apps/rDock/src/rDock_2013.1_src/data/scripts/dock_solv.prm

>  <Rbt.Receptor>
prm/pocket_docking_8.prm

>  <SCORE>
-35.6823

>  <SCORE.INTER>
-30.1558

>  <SCORE.INTER.CONST>
1

>  <SCORE.INTER.POLAR>
-5.01218

>  <SCORE.INTER.ROT>
10

>  <SCORE.INTER.SOLV>
7.66523

>  <SCORE.INTER.VDW>
-16.2183

>  <SCORE.INTER.norm>
-1.31112

>  <SCORE.INTRA>
-5.52643

>  <SCORE.INTRA.DIHEDRAL>
-7.80961

>  <SCORE.INTRA.DIHEDRAL.0>
23.4151

>  <SCORE.INTRA.POLAR>
0

>  <SCORE.INTRA.POLAR.0>
0

>  <SCORE.INTRA.REPUL>
0

>  <SCORE.INTRA.REPUL.0>
0

>  <SCORE.INTRA.SOLV>
0.245214

>  <SCORE.INTRA.SOLV.lig_0>
-17.3568

>  <SCORE.INTRA.VDW>
-1.74423

>  <SCORE.INTRA.VDW.0>
1.0768

>  <SCORE.INTRA.norm>
-0.24028

>  <SCORE.RESTR>
0

>  <SCORE.RESTR.CAVITY>
0

>  <SCORE.RESTR.norm>
0

>  <SCORE.SYSTEM>
0

>  <SCORE.SYSTEM.CONST>
0

>  <SCORE.SYSTEM.DIHEDRAL>
0

>  <SCORE.SYSTEM.SOLV>
0

>  <SCORE.SYSTEM.norm>
0

>  <SCORE.heavy>
23

>  <SCORE.norm>
-1.5514

>  <RMSD>
6.900

$$$$
1uui_lig
 OpenBabel11021811413D
libRbt.so/2013.1/901 2013/11/27
 23 24  0  0  0  0  0  0  0  0999 V2000
   -6.6699    3.5933    3.9533 C   0  0  0  0  0  0  0  0  0  0  0  0
   -7.8605    2.0095    1.8259 O   0  0  0  0  0  0  0  0  0  0  0  0
  -11.3280    5.2110    5.0245 O   0  0  0  0  0  0  0  0  0  0  0  0
   -8.2785    0.6396    1.8765 C   0  0  0  0  0  0  0  0  0  0  0  0
  -11.9037    4.4039    6.0546 C   0  0  0  0  0  0  0  0  0  0  0  0
   -5.9619    4.4829    2.9753 N   0  0  0  0  0  0  0  0  0  0  0  0
   -7.0875   -0.2591    1.5402 C   0  0  0  0  0  0  0  0  0  0  0  0
   -5.6773    3.7665    1.7023 C   0  0  0  0  0  0  0  0  0  0  0  0
   -4.6906    4.9977    3.5493 C   0  0  0  0  0  0  0  0  0  0  0  0
   -7.5822   -1.6381    1.0920 C   0  0  0  0  0  0  0  0  0  0  0  0
   -4.7690    2.5445    1.9207 C   0  0  0  0  0  0  0  0  0  0  0  0
   -3.7341    3.8535    3.9262 C   0  0  0  0  0  0  0  0  0  0  0  0
   -6.5236   -2.6443    1.3315 N   0  0  0  0  0  0  0  0  0  0  0  0
   -4.1103    2.5656    3.2644 N   0  0  0  0  0  0  0  0  0  0  0  0
   -3.6129    1.3608    3.7948 C   0  0  0  0  0  0  0  0  0  0  0  0
   -4.4555    0.3337    4.1015 N   0  0  0  0  0  0  0  0  0  0  0  0
   -2.2988    1.2418    4.1390 N   0  0  0  0  0  0  0  0  0  0  0  0
   -8.7281    2.8165    2.6273 C   0  0  0  0  0  0  0  0  0  0  0  0
   -8.1918    3.6076    3.6799 C   0  0  0  0  0  0  0  0  0  0  0  0
   -9.0591    4.4051    4.4771 C   0  0  0  0  0  0  0  0  0  0  0  0
  -10.4572    4.4099    4.2207 C   0  0  0  0  0  0  0  0  0  0  0  0
  -10.9894    3.6199    3.1681 C   0  0  0  0  0  0  0  0  0  0  0  0
  -10.1250    2.8228    2.3725 C   0  0  0  0  0  0  0  0  0  0  0  0
  2  4  1  0  0  0  0
  3  5  1  0  0  0  0
  4  7  1  0  0  0  0
  6  1  1  0  0  0  0
  7 10  1  0  0  0  0
  8  6  1  0  0  0  0
  8 11  1  0  0  0  0
  9  6  1  0  0  0  0
 10 13  1  0  0  0  0
 11 14  1  0  0  0  0
 12  9  1  0  0  0  0
 14 12  1  0  0  0  0
 14 15  1  0  0  0  0
 15 16  1  0  0  0  0
 15 17  1  0  0  0  0
 18  2  1  0  0  0  0
 18 23  2  0  0  0  0
 19  1  1  0  0  0  0
 19 18  1  0  0  0  0
 20 19  2  0  0  0  0
 21  3  1  0  0  0  0
 21 20  1  0  0  0  0
 22 21  2  0  0  0  0
 22 23  1  0  0  0  0
M  END
>  <CHROM.1>
-156.62335703,-159.61137891,-84.54021342,-155.60674449,68.14615494,-64.26128306
-167.75693052,172.90709854,123.11248451,79.70944174,-96.85802617,-7.06930820
2.45489719,3.15504265,-2.59542024,0.02026439,-2.70188139

>  <Name>
1uui_lig

>  <RI>
0

>  <Rbt.Current_Directory>
/home/itssahil/PROJECTS/Mol_Feturizer/New_Systems/rnas/1uui

>  <Rbt.Executable>
rbdock ($Id: //depot/dev/client3/rdock/2013.1/src/exe/rbdock.cxx#4 $)

>  <Rbt.Library>
libRbt.so (2013.1, Build901 2013/11/27)

>  <Rbt.Parameter_File>
/export/apps/rDock/src/rDock_2013.1_src/data/scripts/dock_solv.prm

>  <Rbt.Receptor>
prm/pocket_docking_8.prm

>  <SCORE>
-27.3492

>  <SCORE.INTER>
-22.7519

>  <SCORE.INTER.CONST>
1

>  <SCORE.INTER.POLAR>
-3.45749

>  <SCORE.INTER.ROT>
10

>  <SCORE.INTER.SOLV>
5.8456

>  <SCORE.INTER.VDW>
-15.8582

>  <SCORE.INTER.norm>
-0.989215

>  <SCORE.INTRA>
-4.5972

>  <SCORE.INTRA.DIHEDRAL>
-3.68373

>  <SCORE.INTRA.DIHEDRAL.0>
23.4151

>  <SCORE.INTRA.POLAR>
0

>  <SCORE.INTRA.POLAR.0>
0

>  <SCORE.INTRA.REPUL>
0.0143529

>  <SCORE.INTRA.REPUL.0>
0

>  <SCORE.INTRA.SOLV>
0.498229

>  <SCORE.INTRA.SOLV.lig_0>
-17.3568

>  <SCORE.INTRA.VDW>
-3.07622

>  <SCORE.INTRA.VDW.0>
1.0768

>  <SCORE.INTRA.norm>
-0.199878

>  <SCORE.RESTR>
0

>  <SCORE.RESTR.CAVITY>
0

>  <SCORE.RESTR.norm>
0

>  <SCORE.SYSTEM>
0

>  <SCORE.SYSTEM.CONST>
0

>  <SCORE.SYSTEM.DIHEDRAL>
0

>  <SCORE.SYSTEM.SOLV>
0

>  <SCORE.SYSTEM.norm>
0

>  <SCORE.heavy>
23

>  <SCORE.norm>
-1.18909

>  <RMSD>
6.904

$$$$
1uui_lig
 OpenBabel11021811413D
libRbt.so/2013.1/901 2013/11/27
 23 24  0  0  0  0  0  0  0  0999 V2000
   -6.0454   -0.0548    0.0399 C   0  0  0  0  0  0  0  0  0  0  0  0
   -7.0151    0.9150   -2.5235 O   0  0  0  0  0  0  0  0  0  0  0  0
   -4.7865    4.7165    1.0939 O   0  0  0  0  0  0  0  0  0  0  0  0
   -6.0522    0.5620   -3.5246 C   0  0  0  0  0  0  0  0  0  0  0  0
   -5.8327    5.2978    1.8760 C   0  0  0  0  0  0  0  0  0  0  0  0
   -7.2395   -0.2961    0.9148 N   0  0  0  0  0  0  0  0  0  0  0  0
   -5.3330   -0.7183   -3.0970 C   0  0  0  0  0  0  0  0  0  0  0  0
   -6.9226   -0.0324    2.3448 C   0  0  0  0  0  0  0  0  0  0  0  0
   -7.7344   -1.6901    0.7656 C   0  0  0  0  0  0  0  0  0  0  0  0
   -4.2071   -1.0412   -4.0845 C   0  0  0  0  0  0  0  0  0  0  0  0
   -5.8048   -0.9520    2.8651 C   0  0  0  0  0  0  0  0  0  0  0  0
   -6.6552   -2.7187    1.1442 C   0  0  0  0  0  0  0  0  0  0  0  0
   -4.7795   -1.2599   -5.4317 N   0  0  0  0  0  0  0  0  0  0  0  0
   -5.5510   -2.1054    1.9459 N   0  0  0  0  0  0  0  0  0  0  0  0
   -4.3181   -2.7789    2.0274 C   0  0  0  0  0  0  0  0  0  0  0  0
   -4.0855   -3.8994    1.2861 N   0  0  0  0  0  0  0  0  0  0  0  0
   -3.3809   -2.4068    2.9454 N   0  0  0  0  0  0  0  0  0  0  0  0
   -6.4520    1.8664   -1.6158 C   0  0  0  0  0  0  0  0  0  0  0  0
   -5.9653    1.4394   -0.3501 C   0  0  0  0  0  0  0  0  0  0  0  0
   -5.4102    2.3899    0.5511 C   0  0  0  0  0  0  0  0  0  0  0  0
   -5.3432    3.7619    0.1857 C   0  0  0  0  0  0  0  0  0  0  0  0
   -5.8290    4.1850   -1.0794 C   0  0  0  0  0  0  0  0  0  0  0  0
   -6.3841    3.2374   -1.9792 C   0  0  0  0  0  0  0  0  0  0  0  0
  2  4  1  0  0  0  0
  3  5  1  0  0  0  0
  4  7  1  0  0  0  0
  6  1  1  0  0  0  0
  7 10  1  0  0  0  0
  8  6  1  0  0  0  0
  8 11  1  0  0  0  0
  9  6  1  0  0  0  0
 10 13  1  0  0  0  0
 11 14  1  0  0  0  0
 12  9  1  0  0  0  0
 14 12  1  0  0  0  0
 14 15  1  0  0  0  0
 15 16  1  0  0  0  0
 15 17  1  0  0  0  0
 18  2  1  0  0  0  0
 18 23  2  0  0  0  0
 19  1  1  0  0  0  0
 19 18  1  0  0  0  0
 20 19  2  0  0  0  0
 21  3  1  0  0  0  0
 21 20  1  0  0  0  0
 22 21  2  0  0  0  0
 22 23  1  0  0  0  0
M  END
>  <CHROM.1>
95.31633087,-174.59512210,-85.76813603,-61.20443658,-24.22102957,174.70197388
-167.59802972,116.19284609,-100.38133709,-98.76770920,-93.55394925,-5.67556082
0.29649613,-0.17471233,0.42966679,-1.45974508,1.57885346

>  <Name>
1uui_lig

>  <RI>
0

>  <Rbt.Current_Directory>
/home/itssahil/PROJECTS/Mol_Feturizer/New_Systems/rnas/1uui

>  <Rbt.Executable>
rbdock ($Id: //depot/dev/client3/rdock/2013.1/src/exe/rbdock.cxx#4 $)

>  <Rbt.Library>
libRbt.so (2013.1, Build901 2013/11/27)

>  <Rbt.Parameter_File>
/export/apps/rDock/src/rDock_2013.1_src/data/scripts/dock_solv.prm

>  <Rbt.Receptor>
prm/pocket_docking_7.prm

>  <SCORE>
-30.3839

>  <SCORE.INTER>
-28.721

>  <SCORE.INTER.CONST>
1

>  <SCORE.INTER.POLAR>
-4.48571

>  <SCORE.INTER.ROT>
10

>  <SCORE.INTER.SOLV>
7.74504

>  <SCORE.INTER.VDW>
-17.0433

>  <SCORE.INTER.norm>
-1.24874

>  <SCORE.INTRA>
-1.97615

>  <SCORE.INTRA.DIHEDRAL>
-1.12044

>  <SCORE.INTRA.DIHEDRAL.0>
23.4151

>  <SCORE.INTRA.POLAR>
0

>  <SCORE.INTRA.POLAR.0>
0

>  <SCORE.INTRA.REPUL>
0

>  <SCORE.INTRA.REPUL.0>
0

>  <SCORE.INTRA.SOLV>
0.107625

>  <SCORE.INTRA.SOLV.lig_0>
-17.3568

>  <SCORE.INTRA.VDW>
-1.46975

>  <SCORE.INTRA.VDW.0>
1.0768

>  <SCORE.INTRA.norm>
-0.0859197

>  <SCORE.RESTR>
0.313279

>  <SCORE.RESTR.CAVITY>
0.313279

>  <SCORE.RESTR.norm>
0.0136208

>  <SCORE.SYSTEM>
0

>  <SCORE.SYSTEM.CONST>
0

>  <SCORE.SYSTEM.DIHEDRAL>
0

>  <SCORE.SYSTEM.SOLV>
0

>  <SCORE.SYSTEM.norm>
0

>  <SCORE.heavy>
23

>  <SCORE.norm>
-1.32104

>  <RMSD>
6.920

$$$$
1uui_lig
 OpenBabel11021811413D
libRbt.so/2013.1/901 2013/11/27
 23 24  0  0  0  0  0  0  0  0999 V2000
   -5.7557    0.5640    0.3142 C   0  0  0  0  0  0  0  0  0  0  0  0
   -6.4543    2.3327   -1.8848 O   0  0  0  0  0  0  0  0  0  0  0  0
   -8.0247    3.8721    3.3753 O   0  0  0  0  0  0  0  0  0  0  0  0
   -7.5863    2.3754   -2.7627 C   0  0  0  0  0  0  0  0  0  0  0  0
   -6.9169    4.4734    4.0500 C   0  0  0  0  0  0  0  0  0  0  0  0
   -6.6869   -0.4917   -0.2032 N   0  0  0  0  0  0  0  0  0  0  0  0
   -7.1458    1.9587   -4.1668 C   0  0  0  0  0  0  0  0  0  0  0  0
   -7.5916   -0.9861    0.8700 C   0  0  0  0  0  0  0  0  0  0  0  0
   -5.9283   -1.6341   -0.7774 C   0  0  0  0  0  0  0  0  0  0  0  0
   -6.5697    0.5395   -4.1354 C   0  0  0  0  0  0  0  0  0  0  0  0
   -6.8107   -1.6218    2.0328 C   0  0  0  0  0  0  0  0  0  0  0  0
   -5.0078   -2.2866    0.2681 C   0  0  0  0  0  0  0  0  0  0  0  0
   -6.4571    0.0214   -5.5172 N   0  0  0  0  0  0  0  0  0  0  0  0
   -5.3891   -1.9104    1.6651 N   0  0  0  0  0  0  0  0  0  0  0  0
   -4.4428   -2.0760    2.6935 C   0  0  0  0  0  0  0  0  0  0  0  0
   -4.2208   -1.0846    3.6028 N   0  0  0  0  0  0  0  0  0  0  0  0
   -3.6331   -3.1728    2.7244 N   0  0  0  0  0  0  0  0  0  0  0  0
   -6.8439    2.7187   -0.5637 C   0  0  0  0  0  0  0  0  0  0  0  0
   -6.5251    1.8856    0.5434 C   0  0  0  0  0  0  0  0  0  0  0  0
   -6.9186    2.2715    1.8549 C   0  0  0  0  0  0  0  0  0  0  0  0
   -7.6282    3.4866    2.0561 C   0  0  0  0  0  0  0  0  0  0  0  0
   -7.9440    4.3169    0.9488 C   0  0  0  0  0  0  0  0  0  0  0  0
   -7.5528    3.9323   -0.3607 C   0  0  0  0  0  0  0  0  0  0  0  0
  2  4  1  0  0  0  0
  3  5  1  0  0  0  0
  4  7  1  0  0  0  0
  6  1  1  0  0  0  0
  7 10  1  0  0  0  0
  8  6  1  0  0  0  0
  8 11  1  0  0  0  0
  9  6  1  0  0  0  0
 10 13  1  0  0  0  0
 11 14  1  0  0  0  0
 12  9  1  0  0  0  0
 14 12  1  0  0  0  0
 14 15  1  0  0  0  0
 15 16  1  0  0  0  0
 15 17  1  0  0  0  0
 18  2  1  0  0  0  0
 18 23  2  0  0  0  0
 19  1  1  0  0  0  0
 19 18  1  0  0  0  0
 20 19  2  0  0  0  0
 21  3  1  0  0  0  0
 21 20  1  0  0  0  0
 22 21  2  0  0  0  0
 22 23  1  0  0  0  0
M  END
>  <CHROM.1>
-179.97436917,59.63963378,-73.39707389,166.20410170,-160.77376009,-58.28816357
-161.45891960,-148.77099227,127.94630611,-78.22814973,81.04233438,-6.40304646
0.78757276,0.26271831,-0.75463064,1.16055663,-1.81055523

>  <Name>
1uui_lig

>  <RI>
0

>  <Rbt.Current_Directory>
/home/itssahil/PROJECTS/Mol_Feturizer/New_Systems/rnas/1uui

>  <Rbt.Executable>
rbdock ($Id: //depot/dev/client3/rdock/2013.1/src/exe/rbdock.cxx#4 $)

>  <Rbt.Library>
libRbt.so (2013.1, Build901 2013/11/27)

>  <Rbt.Parameter_File>
/export/apps/rDock/src/rDock_2013.1_src/data/scripts/dock_solv.prm

>  <Rbt.Receptor>
prm/pocket_docking_7.prm

>  <SCORE>
-34.8831

>  <SCORE.INTER>
-27.9579

>  <SCORE.INTER.CONST>
1

>  <SCORE.INTER.POLAR>
-4.40198

>  <SCORE.INTER.ROT>
10

>  <SCORE.INTER.SOLV>
7.08435

>  <SCORE.INTER.VDW>
-16.5935

>  <SCORE.INTER.norm>
-1.21556

>  <SCORE.INTRA>
-6.92512

>  <SCORE.INTRA.DIHEDRAL>
-9.37313

>  <SCORE.INTRA.DIHEDRAL.0>
23.4151

>  <SCORE.INTRA.POLAR>
0

>  <SCORE.INTRA.POLAR.0>
0

>  <SCORE.INTRA.REPUL>
0

>  <SCORE.INTRA.REPUL.0>
0

>  <SCORE.INTRA.SOLV>
0.246169

>  <SCORE.INTRA.SOLV.lig_0>
-17.3568

>  <SCORE.INTRA.VDW>
-2.36164

>  <SCORE.INTRA.VDW.0>
1.0768

>  <SCORE.INTRA.norm>
-0.301092

>  <SCORE.RESTR>
0

>  <SCORE.RESTR.CAVITY>
0

>  <SCORE.RESTR.norm>
0

>  <SCORE.SYSTEM>
0

>  <SCORE.SYSTEM.CONST>
0

>  <SCORE.SYSTEM.DIHEDRAL>
0

>  <SCORE.SYSTEM.SOLV>
0

>  <SCORE.SYSTEM.norm>
0

>  <SCORE.heavy>
23

>  <SCORE.norm>
-1.51666

>  <RMSD>
6.920

$$$$
1uui_lig
 OpenBabel11021811413D
libRbt.so/2013.1/901 2013/11/27
 23 24  0  0  0  0  0  0  0  0999 V2000
  -12.5536    0.5595    1.7113 C   0  0  0  0  0  0  0  0  0  0  0  0
  -13.2616   -1.9728    2.9513 O   0  0  0  0  0  0  0  0  0  0  0  0
  -12.5887    2.5596    6.3438 O   0  0  0  0  0  0  0  0  0  0  0  0
  -14.5288   -1.9086    2.2849 C   0  0  0  0  0  0  0  0  0  0  0  0
  -13.8635    2.9900    6.8272 C   0  0  0  0  0  0  0  0  0  0  0  0
  -13.5996    1.4667    1.1347 N   0  0  0  0  0  0  0  0  0  0  0  0
  -14.7951   -3.2437    1.5879 C   0  0  0  0  0  0  0  0  0  0  0  0
  -14.2678    0.8420   -0.0392 C   0  0  0  0  0  0  0  0  0  0  0  0
  -13.0090    2.7707    0.7332 C   0  0  0  0  0  0  0  0  0  0  0  0
  -16.0529   -3.1393    0.7195 C   0  0  0  0  0  0  0  0  0  0  0  0
  -13.2740    0.5417   -1.1741 C   0  0  0  0  0  0  0  0  0  0  0  0
  -11.9041    2.5921   -0.3221 C   0  0  0  0  0  0  0  0  0  0  0  0
  -17.0795   -4.0795    1.2220 N   0  0  0  0  0  0  0  0  0  0  0  0
  -11.9705    1.2519   -0.9837 N   0  0  0  0  0  0  0  0  0  0  0  0
  -10.8319    0.7716   -1.6570 C   0  0  0  0  0  0  0  0  0  0  0  0
  -10.5640    1.1580   -2.9368 N   0  0  0  0  0  0  0  0  0  0  0  0
  -10.0462   -0.1916   -1.0962 N   0  0  0  0  0  0  0  0  0  0  0  0
  -13.0960   -0.8334    3.8001 C   0  0  0  0  0  0  0  0  0  0  0  0
  -12.7492    0.4262    3.2394 C   0  0  0  0  0  0  0  0  0  0  0  0
  -12.5811    1.5556    4.0880 C   0  0  0  0  0  0  0  0  0  0  0  0
  -12.7599    1.4233    5.4919 C   0  0  0  0  0  0  0  0  0  0  0  0
  -13.1074    0.1645    6.0487 C   0  0  0  0  0  0  0  0  0  0  0  0
  -13.2743   -0.9635    5.2029 C   0  0  0  0  0  0  0  0  0  0  0  0
  2  4  1  0  0  0  0
  3  5  1  0  0  0  0
  4  7  1  0  0  0  0
  6  1  1  0  0  0  0
  7 10  1  0  0  0  0
  8  6  1  0  0  0  0
  8 11  1  0  0  0  0
  9  6  1  0  0  0  0
 10 13  1  0  0  0  0
 11 14  1  0  0  0  0
 12  9  1  0  0  0  0
 14 12  1  0  0  0  0
 14 15  1  0  0  0  0
 15 16  1  0  0  0  0
 15 17  1  0  0  0  0
 18  2  1  0  0  0  0
 18 23  2  0  0  0  0
 19  1  1  0  0  0  0
 19 18  1  0  0  0  0
 20 19  2  0  0  0  0
 21  3  1  0  0  0  0
 21 20  1  0  0  0  0
 22 21  2  0  0  0  0
 22 23  1  0  0  0  0
M  END
>  <CHROM.1>
-169.82795942,-172.63654790,-129.94712816,-117.31764328,64.72442288,85.40893196
123.97340944,29.92806572,-77.31401041,115.16456152,107.92580666,-13.13847837
0.17602165,1.89639983,-1.19435838,0.92964350,1.23934163

>  <Name>
1uui_lig

>  <RI>
0

>  <Rbt.Current_Directory>
/home/itssahil/PROJECTS/Mol_Feturizer/New_Systems/rnas/1uui

>  <Rbt.Executable>
rbdock ($Id: //depot/dev/client3/rdock/2013.1/src/exe/rbdock.cxx#4 $)

>  <Rbt.Library>
libRbt.so (2013.1, Build901 2013/11/27)

>  <Rbt.Parameter_File>
/export/apps/rDock/src/rDock_2013.1_src/data/scripts/dock_solv.prm

>  <Rbt.Receptor>
prm/pocket_docking_5.prm

>  <SCORE>
-20.6195

>  <SCORE.INTER>
-17.04

>  <SCORE.INTER.CONST>
1

>  <SCORE.INTER.POLAR>
-2.15923

>  <SCORE.INTER.ROT>
10

>  <SCORE.INTER.SOLV>
5.88611

>  <SCORE.INTER.VDW>
-16.3913

>  <SCORE.INTER.norm>
-0.74087

>  <SCORE.INTRA>
-3.59909

>  <SCORE.INTRA.DIHEDRAL>
-0.517047

>  <SCORE.INTRA.DIHEDRAL.0>
23.4151

>  <SCORE.INTRA.POLAR>
0

>  <SCORE.INTRA.POLAR.0>
0

>  <SCORE.INTRA.REPUL>
0

>  <SCORE.INTRA.REPUL.0>
0

>  <SCORE.INTRA.SOLV>
0.00941109

>  <SCORE.INTRA.SOLV.lig_0>
-17.3568

>  <SCORE.INTRA.VDW>
-3.34527

>  <SCORE.INTRA.VDW.0>
1.0768

>  <SCORE.INTRA.norm>
-0.156482

>  <SCORE.RESTR>
0.0195736

>  <SCORE.RESTR.CAVITY>
0.0195736

>  <SCORE.RESTR.norm>
0.000851026

>  <SCORE.SYSTEM>
0

>  <SCORE.SYSTEM.CONST>
0

>  <SCORE.SYSTEM.DIHEDRAL>
0

>  <SCORE.SYSTEM.SOLV>
0

>  <SCORE.SYSTEM.norm>
0

>  <SCORE.heavy>
23

>  <SCORE.norm>
-0.896501

>  <RMSD>
6.922

$$$$
1uui_lig
 OpenBabel11021811413D
libRbt.so/2013.1/901 2013/11/27
 23 24  0  0  0  0  0  0  0  0999 V2000
   -9.3099   -0.0871   -0.9978 C   0  0  0  0  0  0  0  0  0  0  0  0
   -7.1659   -0.5181   -2.9133 O   0  0  0  0  0  0  0  0  0  0  0  0
   -6.2061   -1.9371    2.5244 O   0  0  0  0  0  0  0  0  0  0  0  0
   -7.0362    0.8997   -3.0778 C   0  0  0  0  0  0  0  0  0  0  0  0
   -5.3110   -0.9894    3.1115 C   0  0  0  0  0  0  0  0  0  0  0  0
   -9.5720    1.1829   -0.2443 N   0  0  0  0  0  0  0  0  0  0  0  0
   -7.4574    1.2788   -4.4984 C   0  0  0  0  0  0  0  0  0  0  0  0
  -11.0114    1.3121    0.1110 C   0  0  0  0  0  0  0  0  0  0  0  0
   -9.1487    2.3676   -1.0366 C   0  0  0  0  0  0  0  0  0  0  0  0
   -6.2474    1.2212   -5.4363 C   0  0  0  0  0  0  0  0  0  0  0  0
  -11.9106    1.3487   -1.1364 C   0  0  0  0  0  0  0  0  0  0  0  0
   -9.8976    2.4502   -2.3777 C   0  0  0  0  0  0  0  0  0  0  0  0
   -5.6454   -0.1298   -5.3835 N   0  0  0  0  0  0  0  0  0  0  0  0
  -11.1283    1.5995   -2.3872 N   0  0  0  0  0  0  0  0  0  0  0  0
  -11.6949    1.2416   -3.6247 C   0  0  0  0  0  0  0  0  0  0  0  0
  -10.9866    1.3792   -4.7816 N   0  0  0  0  0  0  0  0  0  0  0  0
  -13.0063    0.8776   -3.7106 N   0  0  0  0  0  0  0  0  0  0  0  0
   -6.9287   -0.8769   -1.5491 C   0  0  0  0  0  0  0  0  0  0  0  0
   -7.9471   -0.6839   -0.5760 C   0  0  0  0  0  0  0  0  0  0  0  0
   -7.7050   -1.0381    0.7803 C   0  0  0  0  0  0  0  0  0  0  0  0
   -6.4483   -1.5832    1.1598 C   0  0  0  0  0  0  0  0  0  0  0  0
   -5.4339   -1.7760    0.1855 C   0  0  0  0  0  0  0  0  0  0  0  0
   -5.6740   -1.4218   -1.1682 C   0  0  0  0  0  0  0  0  0  0  0  0
  2  4  1  0  0  0  0
  3  5  1  0  0  0  0
  4  7  1  0  0  0  0
  6  1  1  0  0  0  0
  7 10  1  0  0  0  0
  8  6  1  0  0  0  0
  8 11  1  0  0  0  0
  9  6  1  0  0  0  0
 10 13  1  0  0  0  0
 11 14  1  0  0  0  0
 12  9  1  0  0  0  0
 14 12  1  0  0  0  0
 14 15  1  0  0  0  0
 15 16  1  0  0  0  0
 15 17  1  0  0  0  0
 18  2  1  0  0  0  0
 18 23  2  0  0  0  0
 19  1  1  0  0  0  0
 19 18  1  0  0  0  0
 20 19  2  0  0  0  0
 21  3  1  0  0  0  0
 21 20  1  0  0  0  0
 22 21  2  0  0  0  0
 22 23  1  0  0  0  0
M  END
>  <CHROM.1>
-173.23807033,-89.54295002,-142.69200533,56.77428476,-78.89904564,-176.11005118
-143.68865973,-43.25464837,78.50121427,-120.46610133,-107.25048241,-8.40960095
0.28713179,-1.67305033,2.35363737,0.33974082,-1.34623499

>  <Name>
1uui_lig

>  <RI>
0

>  <Rbt.Current_Directory>
/home/itssahil/PROJECTS/Mol_Feturizer/New_Systems/rnas/1uui

>  <Rbt.Executable>
rbdock ($Id: //depot/dev/client3/rdock/2013.1/src/exe/rbdock.cxx#4 $)

>  <Rbt.Library>
libRbt.so (2013.1, Build901 2013/11/27)

>  <Rbt.Parameter_File>
/export/apps/rDock/src/rDock_2013.1_src/data/scripts/dock_solv.prm

>  <Rbt.Receptor>
prm/pocket_docking_7.prm

>  <SCORE>
-30.5409

>  <SCORE.INTER>
-27.1653

>  <SCORE.INTER.CONST>
1

>  <SCORE.INTER.POLAR>
-3.60706

>  <SCORE.INTER.ROT>
10

>  <SCORE.INTER.SOLV>
8.85052

>  <SCORE.INTER.VDW>
-19.3035

>  <SCORE.INTER.norm>
-1.1811

>  <SCORE.INTRA>
-3.37566

>  <SCORE.INTRA.DIHEDRAL>
-3.90161

>  <SCORE.INTRA.DIHEDRAL.0>
23.4151

>  <SCORE.INTRA.POLAR>
0

>  <SCORE.INTRA.POLAR.0>
0

>  <SCORE.INTRA.REPUL>
0

>  <SCORE.INTRA.REPUL.0>
0

>  <SCORE.INTRA.SOLV>
0.956411

>  <SCORE.INTRA.SOLV.lig_0>
-17.3568

>  <SCORE.INTRA.VDW>
-1.90306

>  <SCORE.INTRA.VDW.0>
1.0768

>  <SCORE.INTRA.norm>
-0.146768

>  <SCORE.RESTR>
0

>  <SCORE.RESTR.CAVITY>
0

>  <SCORE.RESTR.norm>
0

>  <SCORE.SYSTEM>
0

>  <SCORE.SYSTEM.CONST>
0

>  <SCORE.SYSTEM.DIHEDRAL>
0

>  <SCORE.SYSTEM.SOLV>
0

>  <SCORE.SYSTEM.norm>
0

>  <SCORE.heavy>
23

>  <SCORE.norm>
-1.32787

>  <RMSD>
6.925

$$$$
1uui_lig
 OpenBabel11021811413D
libRbt.so/2013.1/901 2013/11/27
 23 24  0  0  0  0  0  0  0  0999 V2000
  -10.3937    1.7153    0.8829 C   0  0  0  0  0  0  0  0  0  0  0  0
  -12.1066    0.0206   -0.7436 O   0  0  0  0  0  0  0  0  0  0  0  0
  -12.7710   -0.1680    4.9157 O   0  0  0  0  0  0  0  0  0  0  0  0
  -13.2105    0.7065   -1.3477 C   0  0  0  0  0  0  0  0  0  0  0  0
  -13.5113    0.9753    5.3502 C   0  0  0  0  0  0  0  0  0  0  0  0
   -9.0183    1.2541    1.2639 N   0  0  0  0  0  0  0  0  0  0  0  0
  -13.0806    0.6198   -2.8692 C   0  0  0  0  0  0  0  0  0  0  0  0
   -8.0093    2.3250    1.0411 C   0  0  0  0  0  0  0  0  0  0  0  0
   -8.6326    0.0416    0.4947 C   0  0  0  0  0  0  0  0  0  0  0  0
  -12.3412    1.8510   -3.4027 C   0  0  0  0  0  0  0  0  0  0  0  0
   -7.9363    2.7482   -0.4359 C   0  0  0  0  0  0  0  0  0  0  0  0
   -8.6401    0.3051   -1.0208 C   0  0  0  0  0  0  0  0  0  0  0  0
  -13.3173    2.9232   -3.6991 N   0  0  0  0  0  0  0  0  0  0  0  0
   -8.6184    1.7672   -1.3370 N   0  0  0  0  0  0  0  0  0  0  0  0
   -9.0226    2.1896   -2.6171 C   0  0  0  0  0  0  0  0  0  0  0  0
   -8.7432    1.4379   -3.7198 N   0  0  0  0  0  0  0  0  0  0  0  0
   -9.5819    3.4198   -2.7998 N   0  0  0  0  0  0  0  0  0  0  0  0
  -12.2741   -0.0222    0.6764 C   0  0  0  0  0  0  0  0  0  0  0  0
  -11.4589    0.7882    1.5130 C   0  0  0  0  0  0  0  0  0  0  0  0
  -11.6261    0.7389    2.9249 C   0  0  0  0  0  0  0  0  0  0  0  0
  -12.6056   -0.1184    3.4957 C   0  0  0  0  0  0  0  0  0  0  0  0
  -13.4189   -0.9255    2.6576 C   0  0  0  0  0  0  0  0  0  0  0  0
  -13.2523   -0.8780    1.2485 C   0  0  0  0  0  0  0  0  0  0  0  0
  2  4  1  0  0  0  0
  3  5  1  0  0  0  0
  4  7  1  0  0  0  0
  6  1  1  0  0  0  0
  7 10  1  0  0  0  0
  8  6  1  0  0  0  0
  8 11  1  0  0  0  0
  9  6  1  0  0  0  0
 10 13  1  0  0  0  0
 11 14  1  0  0  0  0
 12  9  1  0  0  0  0
 14 12  1  0  0  0  0
 14 15  1  0  0  0  0
 15 16  1  0  0  0  0
 15 17  1  0  0  0  0
 18  2  1  0  0  0  0
 18 23  2  0  0  0  0
 19  1  1  0  0  0  0
 19 18  1  0  0  0  0
 20 19  2  0  0  0  0
 21  3  1  0  0  0  0
 21 20  1  0  0  0  0
 22 21  2  0  0  0  0
 22 23  1  0  0  0  0
M  END
>  <CHROM.1>
-174.47135209,-93.10005544,-162.54437727,-89.22941488,-52.24224224,132.48137021
-26.53598529,-169.77271272,-107.56847331,-113.82594628,77.97603128,-11.01453616
1.07981357,0.02950040,-1.97143073,-0.21752091,-1.35470235

>  <Name>
1uui_lig

>  <RI>
0

>  <Rbt.Current_Directory>
/home/itssahil/PROJECTS/Mol_Feturizer/New_Systems/rnas/1uui

>  <Rbt.Executable>
rbdock ($Id: //depot/dev/client3/rdock/2013.1/src/exe/rbdock.cxx#4 $)

>  <Rbt.Library>
libRbt.so (2013.1, Build901 2013/11/27)

>  <Rbt.Parameter_File>
/export/apps/rDock/src/rDock_2013.1_src/data/scripts/dock_solv.prm

>  <Rbt.Receptor>
prm/pocket_docking_4.prm

>  <SCORE>
-22.6856

>  <SCORE.INTER>
-17.806

>  <SCORE.INTER.CONST>
1

>  <SCORE.INTER.POLAR>
-2.87212

>  <SCORE.INTER.ROT>
10

>  <SCORE.INTER.SOLV>
5.03515

>  <SCORE.INTER.VDW>
-14.242

>  <SCORE.INTER.norm>
-0.774174

>  <SCORE.INTRA>
-4.87965

>  <SCORE.INTRA.DIHEDRAL>
-3.43886

>  <SCORE.INTRA.DIHEDRAL.0>
23.4151

>  <SCORE.INTRA.POLAR>
0

>  <SCORE.INTRA.POLAR.0>
0

>  <SCORE.INTRA.REPUL>
0.0809419

>  <SCORE.INTRA.REPUL.0>
0

>  <SCORE.INTRA.SOLV>
1.07924

>  <SCORE.INTRA.SOLV.lig_0>
-17.3568

>  <SCORE.INTRA.VDW>
-4.10455

>  <SCORE.INTRA.VDW.0>
1.0768

>  <SCORE.INTRA.norm>
-0.212159

>  <SCORE.RESTR>
0

>  <SCORE.RESTR.CAVITY>
0

>  <SCORE.RESTR.norm>
0

>  <SCORE.SYSTEM>
0

>  <SCORE.SYSTEM.CONST>
0

>  <SCORE.SYSTEM.DIHEDRAL>
0

>  <SCORE.SYSTEM.SOLV>
0

>  <SCORE.SYSTEM.norm>
0

>  <SCORE.heavy>
23

>  <SCORE.norm>
-0.986332

>  <RMSD>
6.933

$$$$
1uui_lig
 OpenBabel11021811413D
libRbt.so/2013.1/901 2013/11/27
 23 24  0  0  0  0  0  0  0  0999 V2000
   -5.0244   -0.1573    0.6771 C   0  0  0  0  0  0  0  0  0  0  0  0
   -4.1653   -1.0120   -1.9654 O   0  0  0  0  0  0  0  0  0  0  0  0
   -9.0034    1.9786   -1.5738 O   0  0  0  0  0  0  0  0  0  0  0  0
   -3.0677   -0.1399   -2.2631 C   0  0  0  0  0  0  0  0  0  0  0  0
  -10.1003    1.0834   -1.3754 C   0  0  0  0  0  0  0  0  0  0  0  0
   -5.9467   -0.3438    1.8450 N   0  0  0  0  0  0  0  0  0  0  0  0
   -1.7562   -0.9007   -2.0625 C   0  0  0  0  0  0  0  0  0  0  0  0
   -5.1855   -0.4977    3.1145 C   0  0  0  0  0  0  0  0  0  0  0  0
   -6.8232   -1.5281    1.6459 C   0  0  0  0  0  0  0  0  0  0  0  0
   -1.5921   -1.2817   -0.5877 C   0  0  0  0  0  0  0  0  0  0  0  0
   -4.2610   -1.7267    3.0853 C   0  0  0  0  0  0  0  0  0  0  0  0
   -6.0034   -2.8191    1.4799 C   0  0  0  0  0  0  0  0  0  0  0  0
   -1.4423   -0.0543    0.2257 N   0  0  0  0  0  0  0  0  0  0  0  0
   -4.5964   -2.6570    1.9621 N   0  0  0  0  0  0  0  0  0  0  0  0
   -3.6210   -3.5728    1.5257 C   0  0  0  0  0  0  0  0  0  0  0  0
   -2.6337   -3.9932    2.3668 N   0  0  0  0  0  0  0  0  0  0  0  0
   -3.5612   -3.9558    0.2183 N   0  0  0  0  0  0  0  0  0  0  0  0
   -5.3769   -0.2582   -1.8651 C   0  0  0  0  0  0  0  0  0  0  0  0
   -5.8375    0.1810   -0.5938 C   0  0  0  0  0  0  0  0  0  0  0  0
   -7.0454    0.9266   -0.4986 C   0  0  0  0  0  0  0  0  0  0  0  0
   -7.7881    1.2305   -1.6717 C   0  0  0  0  0  0  0  0  0  0  0  0
   -7.3249    0.7915   -2.9398 C   0  0  0  0  0  0  0  0  0  0  0  0
   -6.1202    0.0465   -3.0360 C   0  0  0  0  0  0  0  0  0  0  0  0
  2  4  1  0  0  0  0
  3  5  1  0  0  0  0
  4  7  1  0  0  0  0
  6  1  1  0  0  0  0
  7 10  1  0  0  0  0
  8  6  1  0  0  0  0
  8 11  1  0  0  0  0
  9  6  1  0  0  0  0
 10 13  1  0  0  0  0
 11 14  1  0  0  0  0
 12  9  1  0  0  0  0
 14 12  1  0  0  0  0
 14 15  1  0  0  0  0
 15 16  1  0  0  0  0
 15 17  1  0  0  0  0
 18  2  1  0  0  0  0
 18 23  2  0  0  0  0
 19  1  1  0  0  0  0
 19 18  1  0  0  0  0
 20 19  2  0  0  0  0
 21  3  1  0  0  0  0
 21 20  1  0  0  0  0
 22 21  2  0  0  0  0
 22 23  1  0  0  0  0
M  END
>  <CHROM.1>
167.62975816,-64.59897893,-172.72320886,-65.47931366,-172.33579573,25.44085005
-168.40702135,131.04248137,-95.26189845,-147.36929158,-89.00414448,-5.08458851
-0.84329360,-0.05900794,0.67428566,-0.32356506,2.07800308

>  <Name>
1uui_lig

>  <RI>
0

>  <Rbt.Current_Directory>
/home/itssahil/PROJECTS/Mol_Feturizer/New_Systems/rnas/1uui

>  <Rbt.Executable>
rbdock ($Id: //depot/dev/client3/rdock/2013.1/src/exe/rbdock.cxx#4 $)

>  <Rbt.Library>
libRbt.so (2013.1, Build901 2013/11/27)

>  <Rbt.Parameter_File>
/export/apps/rDock/src/rDock_2013.1_src/data/scripts/dock_solv.prm

>  <Rbt.Receptor>
prm/pocket_docking_7.prm

>  <SCORE>
-22.9898

>  <SCORE.INTER>
-15.8802

>  <SCORE.INTER.CONST>
1

>  <SCORE.INTER.POLAR>
-2.55445

>  <SCORE.INTER.ROT>
10

>  <SCORE.INTER.SOLV>
5.75529

>  <SCORE.INTER.VDW>
-14.2571

>  <SCORE.INTER.norm>
-0.690443

>  <SCORE.INTRA>
-7.10963

>  <SCORE.INTRA.DIHEDRAL>
-8.47794

>  <SCORE.INTRA.DIHEDRAL.0>
23.4151

>  <SCORE.INTRA.POLAR>
0

>  <SCORE.INTRA.POLAR.0>
0

>  <SCORE.INTRA.REPUL>
0

>  <SCORE.INTRA.REPUL.0>
0

>  <SCORE.INTRA.SOLV>
1.09751

>  <SCORE.INTRA.SOLV.lig_0>
-17.3568

>  <SCORE.INTRA.VDW>
-3.41942

>  <SCORE.INTRA.VDW.0>
1.0768

>  <SCORE.INTRA.norm>
-0.309114

>  <SCORE.RESTR>
0

>  <SCORE.RESTR.CAVITY>
0

>  <SCORE.RESTR.norm>
0

>  <SCORE.SYSTEM>
0

>  <SCORE.SYSTEM.CONST>
0

>  <SCORE.SYSTEM.DIHEDRAL>
0

>  <SCORE.SYSTEM.SOLV>
0

>  <SCORE.SYSTEM.norm>
0

>  <SCORE.heavy>
23

>  <SCORE.norm>
-0.999557

>  <RMSD>
6.949

$$$$
1uui_lig
 OpenBabel11021811413D
libRbt.so/2013.1/901 2013/11/27
 23 24  0  0  0  0  0  0  0  0999 V2000
   -5.9526   -0.1936   -0.2326 C   0  0  0  0  0  0  0  0  0  0  0  0
   -8.0333    0.6527   -2.0781 O   0  0  0  0  0  0  0  0  0  0  0  0
   -7.9475    3.0193    3.1080 O   0  0  0  0  0  0  0  0  0  0  0  0
   -8.2707    1.6566   -3.0730 C   0  0  0  0  0  0  0  0  0  0  0  0
   -6.8283    3.9026    3.2138 C   0  0  0  0  0  0  0  0  0  0  0  0
   -6.6253   -1.4069   -0.8025 N   0  0  0  0  0  0  0  0  0  0  0  0
   -6.9370    2.2902   -3.4717 C   0  0  0  0  0  0  0  0  0  0  0  0
   -7.4735   -2.0823    0.2169 C   0  0  0  0  0  0  0  0  0  0  0  0
   -5.6240   -2.3702   -1.3315 C   0  0  0  0  0  0  0  0  0  0  0  0
   -6.0531    1.2531   -4.1719 C   0  0  0  0  0  0  0  0  0  0  0  0
   -6.6493   -2.5638    1.4231 C   0  0  0  0  0  0  0  0  0  0  0  0
   -4.6533   -2.8392   -0.2342 C   0  0  0  0  0  0  0  0  0  0  0  0
   -6.4000    1.1986   -5.6097 N   0  0  0  0  0  0  0  0  0  0  0  0
   -5.1802   -2.5613    1.1382 N   0  0  0  0  0  0  0  0  0  0  0  0
   -4.2797   -2.5478    2.2197 C   0  0  0  0  0  0  0  0  0  0  0  0
   -3.9512   -1.3783    2.8387 N   0  0  0  0  0  0  0  0  0  0  0  0
   -3.6141   -3.6804    2.5854 N   0  0  0  0  0  0  0  0  0  0  0  0
   -8.0075    1.2479   -0.7776 C   0  0  0  0  0  0  0  0  0  0  0  0
   -7.0091    0.8653    0.1594 C   0  0  0  0  0  0  0  0  0  0  0  0
   -6.9902    1.4568    1.4532 C   0  0  0  0  0  0  0  0  0  0  0  0
   -7.9671    2.4270    1.8061 C   0  0  0  0  0  0  0  0  0  0  0  0
   -8.9619    2.8079    0.8677 C   0  0  0  0  0  0  0  0  0  0  0  0
   -8.9825    2.2175   -0.4233 C   0  0  0  0  0  0  0  0  0  0  0  0
  2  4  1  0  0  0  0
  3  5  1  0  0  0  0
  4  7  1  0  0  0  0
  6  1  1  0  0  0  0
  7 10  1  0  0  0  0
  8  6  1  0  0  0  0
  8 11  1  0  0  0  0
  9  6  1  0  0  0  0
 10 13  1  0  0  0  0
 11 14  1  0  0  0  0
 12  9  1  0  0  0  0
 14 12  1  0  0  0  0
 14 15  1  0  0  0  0
 15 16  1  0  0  0  0
 15 17  1  0  0  0  0
 18  2  1  0  0  0  0
 18 23  2  0  0  0  0
 19  1  1  0  0  0  0
 19 18  1  0  0  0  0
 20 19  2  0  0  0  0
 21  3  1  0  0  0  0
 21 20  1  0  0  0  0
 22 21  2  0  0  0  0
 22 23  1  0  0  0  0
M  END
>  <CHROM.1>
85.92466700,65.79590565,-64.49038862,84.78960672,169.00178038,-82.76344097
172.36538781,-158.49532066,-136.58881699,-50.47378189,71.09534328,-6.57876298
0.11614976,-0.07885133,-0.57834232,1.04575812,-1.69359816

>  <Name>
1uui_lig

>  <RI>
0

>  <Rbt.Current_Directory>
/home/itssahil/PROJECTS/Mol_Feturizer/New_Systems/rnas/1uui

>  <Rbt.Executable>
rbdock ($Id: //depot/dev/client3/rdock/2013.1/src/exe/rbdock.cxx#4 $)

>  <Rbt.Library>
libRbt.so (2013.1, Build901 2013/11/27)

>  <Rbt.Parameter_File>
/export/apps/rDock/src/rDock_2013.1_src/data/scripts/dock_solv.prm

>  <Rbt.Receptor>
prm/pocket_docking_6.prm

>  <SCORE>
-32.3726

>  <SCORE.INTER>
-24.7139

>  <SCORE.INTER.CONST>
1

>  <SCORE.INTER.POLAR>
-3.59142

>  <SCORE.INTER.ROT>
10

>  <SCORE.INTER.SOLV>
6.95388

>  <SCORE.INTER.VDW>
-17.0891

>  <SCORE.INTER.norm>
-1.07452

>  <SCORE.INTRA>
-7.65881

>  <SCORE.INTRA.DIHEDRAL>
-7.26591

>  <SCORE.INTRA.DIHEDRAL.0>
23.4151

>  <SCORE.INTRA.POLAR>
-0.65071

>  <SCORE.INTRA.POLAR.0>
0

>  <SCORE.INTRA.REPUL>
0

>  <SCORE.INTRA.REPUL.0>
0

>  <SCORE.INTRA.SOLV>
0.516074

>  <SCORE.INTRA.SOLV.lig_0>
-17.3568

>  <SCORE.INTRA.VDW>
-2.07148

>  <SCORE.INTRA.VDW.0>
1.0768

>  <SCORE.INTRA.norm>
-0.332992

>  <SCORE.RESTR>
2.66069e-05

>  <SCORE.RESTR.CAVITY>
2.66069e-05

>  <SCORE.RESTR.norm>
1.15682e-06

>  <SCORE.SYSTEM>
0

>  <SCORE.SYSTEM.CONST>
0

>  <SCORE.SYSTEM.DIHEDRAL>
0

>  <SCORE.SYSTEM.SOLV>
0

>  <SCORE.SYSTEM.norm>
0

>  <SCORE.heavy>
23

>  <SCORE.norm>
-1.40751

>  <RMSD>
6.960

$$$$
1uui_lig
 OpenBabel11021811413D
libRbt.so/2013.1/901 2013/11/27
 23 24  0  0  0  0  0  0  0  0999 V2000
   -6.3312    0.3633    1.0995 C   0  0  0  0  0  0  0  0  0  0  0  0
   -7.3123    1.0719   -1.5437 O   0  0  0  0  0  0  0  0  0  0  0  0
  -10.2407    2.9435    2.9758 O   0  0  0  0  0  0  0  0  0  0  0  0
   -6.9884    2.1676   -2.4089 C   0  0  0  0  0  0  0  0  0  0  0  0
   -9.7673    4.2394    3.3509 C   0  0  0  0  0  0  0  0  0  0  0  0
   -5.1984    1.2207    1.5803 N   0  0  0  0  0  0  0  0  0  0  0  0
   -6.1007    1.6606   -3.5465 C   0  0  0  0  0  0  0  0  0  0  0  0
   -3.9446    0.9259    0.8348 C   0  0  0  0  0  0  0  0  0  0  0  0
   -4.9667    1.0275    3.0361 C   0  0  0  0  0  0  0  0  0  0  0  0
   -6.8620    0.6287   -4.3847 C   0  0  0  0  0  0  0  0  0  0  0  0
   -3.4971   -0.5344    1.0169 C   0  0  0  0  0  0  0  0  0  0  0  0
   -4.6258   -0.4356    3.3670 C   0  0  0  0  0  0  0  0  0  0  0  0
   -5.8975   -0.2102   -5.1307 N   0  0  0  0  0  0  0  0  0  0  0  0
   -4.2053   -1.2027    2.1533 N   0  0  0  0  0  0  0  0  0  0  0  0
   -4.2505   -2.6088    2.1913 C   0  0  0  0  0  0  0  0  0  0  0  0
   -3.1435   -3.3332    2.5210 N   0  0  0  0  0  0  0  0  0  0  0  0
   -5.3597   -3.2812    1.7703 N   0  0  0  0  0  0  0  0  0  0  0  0
   -8.0432    1.5436   -0.4082 C   0  0  0  0  0  0  0  0  0  0  0  0
   -7.6023    1.2220    0.9046 C   0  0  0  0  0  0  0  0  0  0  0  0
   -8.3351    1.6896    2.0308 C   0  0  0  0  0  0  0  0  0  0  0  0
   -9.5041    2.4758    1.8422 C   0  0  0  0  0  0  0  0  0  0  0  0
   -9.9411    2.7963    0.5302 C   0  0  0  0  0  0  0  0  0  0  0  0
   -9.2113    2.3293   -0.5945 C   0  0  0  0  0  0  0  0  0  0  0  0
  2  4  1  0  0  0  0
  3  5  1  0  0  0  0
  4  7  1  0  0  0  0
  6  1  1  0  0  0  0
  7 10  1  0  0  0  0
  8  6  1  0  0  0  0
  8 11  1  0  0  0  0
  9  6  1  0  0  0  0
 10 13  1  0  0  0  0
 11 14  1  0  0  0  0
 12  9  1  0  0  0  0
 14 12  1  0  0  0  0
 14 15  1  0  0  0  0
 15 16  1  0  0  0  0
 15 17  1  0  0  0  0
 18  2  1  0  0  0  0
 18 23  2  0  0  0  0
 19  1  1  0  0  0  0
 19 18  1  0  0  0  0
 20 19  2  0  0  0  0
 21  3  1  0  0  0  0
 21 20  1  0  0  0  0
 22 21  2  0  0  0  0
 22 23  1  0  0  0  0
M  END
>  <CHROM.1>
174.89703412,62.60403112,-134.62630086,-158.98114721,161.82990092,73.82610635
95.04311064,-57.68926713,-126.94339581,106.39760893,91.93160763,-6.52553547
0.67116663,0.54147527,0.30072101,-0.72048447,1.60704873

>  <Name>
1uui_lig

>  <RI>
0

>  <Rbt.Current_Directory>
/home/itssahil/PROJECTS/Mol_Feturizer/New_Systems/rnas/1uui

>  <Rbt.Executable>
rbdock ($Id: //depot/dev/client3/rdock/2013.1/src/exe/rbdock.cxx#4 $)

>  <Rbt.Library>
libRbt.so (2013.1, Build901 2013/11/27)

>  <Rbt.Parameter_File>
/export/apps/rDock/src/rDock_2013.1_src/data/scripts/dock_solv.prm

>  <Rbt.Receptor>
prm/pocket_docking_6.prm

>  <SCORE>
-27.8706

>  <SCORE.INTER>
-22.7367

>  <SCORE.INTER.CONST>
1

>  <SCORE.INTER.POLAR>
-4.03522

>  <SCORE.INTER.ROT>
10

>  <SCORE.INTER.SOLV>
5.80555

>  <SCORE.INTER.VDW>
-13.9089

>  <SCORE.INTER.norm>
-0.98855

>  <SCORE.INTRA>
-5.13648

>  <SCORE.INTRA.DIHEDRAL>
-5.68881

>  <SCORE.INTRA.DIHEDRAL.0>
23.4151

>  <SCORE.INTRA.POLAR>
0

>  <SCORE.INTRA.POLAR.0>
0

>  <SCORE.INTRA.REPUL>
0

>  <SCORE.INTRA.REPUL.0>
0

>  <SCORE.INTRA.SOLV>
0.024877

>  <SCORE.INTRA.SOLV.lig_0>
-17.3568

>  <SCORE.INTRA.VDW>
-2.30452

>  <SCORE.INTRA.VDW.0>
1.0768

>  <SCORE.INTRA.norm>
-0.223325

>  <SCORE.RESTR>
0.00252234

>  <SCORE.RESTR.CAVITY>
0.00252234

>  <SCORE.RESTR.norm>
0.000109667

>  <SCORE.SYSTEM>
0

>  <SCORE.SYSTEM.CONST>
0

>  <SCORE.SYSTEM.DIHEDRAL>
0

>  <SCORE.SYSTEM.SOLV>
0

>  <SCORE.SYSTEM.norm>
0

>  <SCORE.heavy>
23

>  <SCORE.norm>
-1.21177

>  <RMSD>
6.974

$$$$
1uui_lig
 OpenBabel11021811413D
libRbt.so/2013.1/901 2013/11/27
 23 24  0  0  0  0  0  0  0  0999 V2000
   -5.8588    0.0640    0.0185 C   0  0  0  0  0  0  0  0  0  0  0  0
   -7.8178    1.2511   -1.7716 O   0  0  0  0  0  0  0  0  0  0  0  0
   -7.7571    3.0051    3.6528 O   0  0  0  0  0  0  0  0  0  0  0  0
   -7.1653    2.2135   -2.6094 C   0  0  0  0  0  0  0  0  0  0  0  0
   -6.8895    4.1340    3.7822 C   0  0  0  0  0  0  0  0  0  0  0  0
   -6.5882   -1.0316   -0.7006 N   0  0  0  0  0  0  0  0  0  0  0  0
   -7.1497    1.6947   -4.0481 C   0  0  0  0  0  0  0  0  0  0  0  0
   -7.5140   -1.7538    0.2137 C   0  0  0  0  0  0  0  0  0  0  0  0
   -5.6334   -1.9982   -1.3043 C   0  0  0  0  0  0  0  0  0  0  0  0
   -6.2416    0.4652   -4.1516 C   0  0  0  0  0  0  0  0  0  0  0  0
   -6.7661   -2.4184    1.3821 C   0  0  0  0  0  0  0  0  0  0  0  0
   -4.7347   -2.6486   -0.2387 C   0  0  0  0  0  0  0  0  0  0  0  0
   -6.3218   -0.0943   -5.5194 N   0  0  0  0  0  0  0  0  0  0  0  0
   -5.2907   -2.4856    1.1407 N   0  0  0  0  0  0  0  0  0  0  0  0
   -4.4301   -2.6508    2.2419 C   0  0  0  0  0  0  0  0  0  0  0  0
   -3.5924   -3.7239    2.3171 N   0  0  0  0  0  0  0  0  0  0  0  0
   -4.5098   -1.8179    3.3187 N   0  0  0  0  0  0  0  0  0  0  0  0
   -7.7982    1.6924   -0.4110 C   0  0  0  0  0  0  0  0  0  0  0  0
   -6.8584    1.1402    0.5018 C   0  0  0  0  0  0  0  0  0  0  0  0
   -6.8456    1.5790    1.8550 C   0  0  0  0  0  0  0  0  0  0  0  0
   -7.7702    2.5665    2.2913 C   0  0  0  0  0  0  0  0  0  0  0  0
   -8.7065    3.1168    1.3772 C   0  0  0  0  0  0  0  0  0  0  0  0
   -8.7209    2.6789    0.0267 C   0  0  0  0  0  0  0  0  0  0  0  0
  2  4  1  0  0  0  0
  3  5  1  0  0  0  0
  4  7  1  0  0  0  0
  6  1  1  0  0  0  0
  7 10  1  0  0  0  0
  8  6  1  0  0  0  0
  8 11  1  0  0  0  0
  9  6  1  0  0  0  0
 10 13  1  0  0  0  0
 11 14  1  0  0  0  0
 12  9  1  0  0  0  0
 14 12  1  0  0  0  0
 14 15  1  0  0  0  0
 15 16  1  0  0  0  0
 15 17  1  0  0  0  0
 18  2  1  0  0  0  0
 18 23  2  0  0  0  0
 19  1  1  0  0  0  0
 19 18  1  0  0  0  0
 20 19  2  0  0  0  0
 21  3  1  0  0  0  0
 21 20  1  0  0  0  0
 22 21  2  0  0  0  0
 22 23  1  0  0  0  0
M  END
>  <CHROM.1>
177.77144439,-67.40045626,-64.18874630,175.34455731,-141.60114611,120.82113457
-41.59987606,-149.31011547,-101.62665641,-50.66931254,91.04884800,-6.52213269
0.16679278,0.11504504,-0.78800986,1.08070799,-1.72182043

>  <Name>
1uui_lig

>  <RI>
0

>  <Rbt.Current_Directory>
/home/itssahil/PROJECTS/Mol_Feturizer/New_Systems/rnas/1uui

>  <Rbt.Executable>
rbdock ($Id: //depot/dev/client3/rdock/2013.1/src/exe/rbdock.cxx#4 $)

>  <Rbt.Library>
libRbt.so (2013.1, Build901 2013/11/27)

>  <Rbt.Parameter_File>
/export/apps/rDock/src/rDock_2013.1_src/data/scripts/dock_solv.prm

>  <Rbt.Receptor>
prm/pocket_docking_8.prm

>  <SCORE>
-36.3404

>  <SCORE.INTER>
-27.499

>  <SCORE.INTER.CONST>
1

>  <SCORE.INTER.POLAR>
-3.64507

>  <SCORE.INTER.ROT>
10

>  <SCORE.INTER.SOLV>
7.82919

>  <SCORE.INTER.VDW>
-19.0588

>  <SCORE.INTER.norm>
-1.19561

>  <SCORE.INTRA>
-8.84145

>  <SCORE.INTRA.DIHEDRAL>
-6.77848

>  <SCORE.INTRA.DIHEDRAL.0>
23.4151

>  <SCORE.INTRA.POLAR>
-0.646637

>  <SCORE.INTRA.POLAR.0>
0

>  <SCORE.INTRA.REPUL>
0

>  <SCORE.INTRA.REPUL.0>
0

>  <SCORE.INTRA.SOLV>
0.442673

>  <SCORE.INTRA.SOLV.lig_0>
-17.3568

>  <SCORE.INTRA.VDW>
-3.47498

>  <SCORE.INTRA.VDW.0>
1.0768

>  <SCORE.INTRA.norm>
-0.384411

>  <SCORE.RESTR>
0

>  <SCORE.RESTR.CAVITY>
0

>  <SCORE.RESTR.norm>
0

>  <SCORE.SYSTEM>
0

>  <SCORE.SYSTEM.CONST>
0

>  <SCORE.SYSTEM.DIHEDRAL>
0

>  <SCORE.SYSTEM.SOLV>
0

>  <SCORE.SYSTEM.norm>
0

>  <SCORE.heavy>
23

>  <SCORE.norm>
-1.58002

>  <RMSD>
6.974

$$$$
1uui_lig
 OpenBabel11021811413D
libRbt.so/2013.1/901 2013/11/27
 23 24  0  0  0  0  0  0  0  0999 V2000
   -7.3944    0.8742    1.3899 C   0  0  0  0  0  0  0  0  0  0  0  0
   -5.8170   -1.0257   -0.1442 O   0  0  0  0  0  0  0  0  0  0  0  0
   -3.7344    0.7395    4.8609 O   0  0  0  0  0  0  0  0  0  0  0  0
   -5.2441   -0.2561   -1.2088 C   0  0  0  0  0  0  0  0  0  0  0  0
   -2.5597    1.5229    4.6367 C   0  0  0  0  0  0  0  0  0  0  0  0
   -8.4563   -0.1681    1.5779 N   0  0  0  0  0  0  0  0  0  0  0  0
   -5.6204   -0.8954   -2.5463 C   0  0  0  0  0  0  0  0  0  0  0  0
   -8.4583   -1.1449    0.4551 C   0  0  0  0  0  0  0  0  0  0  0  0
   -9.8001    0.4574    1.6933 C   0  0  0  0  0  0  0  0  0  0  0  0
   -5.1758    0.0071   -3.7016 C   0  0  0  0  0  0  0  0  0  0  0  0
   -8.7434   -0.4673   -0.8960 C   0  0  0  0  0  0  0  0  0  0  0  0
  -10.1555    1.2735    0.4388 C   0  0  0  0  0  0  0  0  0  0  0  0
   -5.1562   -0.7736   -4.9589 N   0  0  0  0  0  0  0  0  0  0  0  0
   -9.2904    0.9155   -0.7281 N   0  0  0  0  0  0  0  0  0  0  0  0
   -9.1992    1.8164   -1.8054 C   0  0  0  0  0  0  0  0  0  0  0  0
   -9.5639    3.1215   -1.6556 N   0  0  0  0  0  0  0  0  0  0  0  0
   -8.8733    1.3769   -3.0545 N   0  0  0  0  0  0  0  0  0  0  0  0
   -5.2983   -0.5843    1.1137 C   0  0  0  0  0  0  0  0  0  0  0  0
   -6.0337    0.3449    1.8991 C   0  0  0  0  0  0  0  0  0  0  0  0
   -5.5117    0.7845    3.1474 C   0  0  0  0  0  0  0  0  0  0  0  0
   -4.2586    0.2950    3.6064 C   0  0  0  0  0  0  0  0  0  0  0  0
   -3.5273   -0.6338    2.8204 C   0  0  0  0  0  0  0  0  0  0  0  0
   -4.0467   -1.0723    1.5740 C   0  0  0  0  0  0  0  0  0  0  0  0
  2  4  1  0  0  0  0
  3  5  1  0  0  0  0
  4  7  1  0  0  0  0
  6  1  1  0  0  0  0
  7 10  1  0  0  0  0
  8  6  1  0  0  0  0
  8 11  1  0  0  0  0
  9  6  1  0  0  0  0
 10 13  1  0  0  0  0
 11 14  1  0  0  0  0
 12  9  1  0  0  0  0
 14 12  1  0  0  0  0
 14 15  1  0  0  0  0
 15 16  1  0  0  0  0
 15 17  1  0  0  0  0
 18  2  1  0  0  0  0
 18 23  2  0  0  0  0
 19  1  1  0  0  0  0
 19 18  1  0  0  0  0
 20 19  2  0  0  0  0
 21  3  1  0  0  0  0
 21 20  1  0  0  0  0
 22 21  2  0  0  0  0
 22 23  1  0  0  0  0
M  END
>  <CHROM.1>
170.31509326,172.65245728,-83.46204913,162.74065927,172.33872061,-173.53944589
55.09222120,121.97087678,96.69937506,76.54211024,-112.94195429,-6.63302527
0.29891123,0.27889446,0.92734347,-0.28194796,1.42857097

>  <Name>
1uui_lig

>  <RI>
0

>  <Rbt.Current_Directory>
/home/itssahil/PROJECTS/Mol_Feturizer/New_Systems/rnas/1uui

>  <Rbt.Executable>
rbdock ($Id: //depot/dev/client3/rdock/2013.1/src/exe/rbdock.cxx#4 $)

>  <Rbt.Library>
libRbt.so (2013.1, Build901 2013/11/27)

>  <Rbt.Parameter_File>
/export/apps/rDock/src/rDock_2013.1_src/data/scripts/dock_solv.prm

>  <Rbt.Receptor>
prm/pocket_docking_6.prm

>  <SCORE>
-22.7249

>  <SCORE.INTER>
-17.6678

>  <SCORE.INTER.CONST>
1

>  <SCORE.INTER.POLAR>
-2.77221

>  <SCORE.INTER.ROT>
10

>  <SCORE.INTER.SOLV>
6.67727

>  <SCORE.INTER.VDW>
-15.0302

>  <SCORE.INTER.norm>
-0.768164

>  <SCORE.INTRA>
-5.50303

>  <SCORE.INTRA.DIHEDRAL>
-7.09753

>  <SCORE.INTRA.DIHEDRAL.0>
23.4151

>  <SCORE.INTRA.POLAR>
0

>  <SCORE.INTRA.POLAR.0>
0

>  <SCORE.INTRA.REPUL>
0

>  <SCORE.INTRA.REPUL.0>
0

>  <SCORE.INTRA.SOLV>
0.667856

>  <SCORE.INTRA.SOLV.lig_0>
-17.3568

>  <SCORE.INTRA.VDW>
-2.28819

>  <SCORE.INTRA.VDW.0>
1.0768

>  <SCORE.INTRA.norm>
-0.239262

>  <SCORE.RESTR>
0.445869

>  <SCORE.RESTR.CAVITY>
0.445869

>  <SCORE.RESTR.norm>
0.0193856

>  <SCORE.SYSTEM>
0

>  <SCORE.SYSTEM.CONST>
0

>  <SCORE.SYSTEM.DIHEDRAL>
0

>  <SCORE.SYSTEM.SOLV>
0

>  <SCORE.SYSTEM.norm>
0

>  <SCORE.heavy>
23

>  <SCORE.norm>
-0.988041

>  <RMSD>
6.986

$$$$
1uui_lig
 OpenBabel11021811413D
libRbt.so/2013.1/901 2013/11/27
 23 24  0  0  0  0  0  0  0  0999 V2000
  -13.2491    0.0289    0.9705 C   0  0  0  0  0  0  0  0  0  0  0  0
  -14.0787   -1.9796    2.9016 O   0  0  0  0  0  0  0  0  0  0  0  0
  -11.3282    2.6172    4.8528 O   0  0  0  0  0  0  0  0  0  0  0  0
  -15.4942   -1.8059    3.0433 C   0  0  0  0  0  0  0  0  0  0  0  0
  -12.2544    3.4888    5.5059 C   0  0  0  0  0  0  0  0  0  0  0  0
  -12.4528    1.0322    0.1903 N   0  0  0  0  0  0  0  0  0  0  0  0
  -16.1860   -3.1550    2.8416 C   0  0  0  0  0  0  0  0  0  0  0  0
  -13.3398    2.0230   -0.4778 C   0  0  0  0  0  0  0  0  0  0  0  0
  -11.6041    0.3601   -0.8288 C   0  0  0  0  0  0  0  0  0  0  0  0
  -16.3647   -3.4334    1.3457 C   0  0  0  0  0  0  0  0  0  0  0  0
  -14.3004    1.3541   -1.4756 C   0  0  0  0  0  0  0  0  0  0  0  0
  -12.4495   -0.4510   -1.8256 C   0  0  0  0  0  0  0  0  0  0  0  0
  -15.4280   -4.4998    0.9265 N   0  0  0  0  0  0  0  0  0  0  0  0
  -13.8902   -0.0486   -1.7981 N   0  0  0  0  0  0  0  0  0  0  0  0
  -14.8504   -0.9316   -2.3262 C   0  0  0  0  0  0  0  0  0  0  0  0
  -15.5086   -0.6352   -3.4829 N   0  0  0  0  0  0  0  0  0  0  0  0
  -15.2409   -2.0349   -1.6263 N   0  0  0  0  0  0  0  0  0  0  0  0
  -13.3918   -0.8236    3.3893 C   0  0  0  0  0  0  0  0  0  0  0  0
  -12.9660    0.1853    2.4826 C   0  0  0  0  0  0  0  0  0  0  0  0
  -12.2792    1.3311    2.9718 C   0  0  0  0  0  0  0  0  0  0  0  0
  -12.0205    1.4653    4.3630 C   0  0  0  0  0  0  0  0  0  0  0  0
  -12.4481    0.4568    5.2659 C   0  0  0  0  0  0  0  0  0  0  0  0
  -13.1326   -0.6877    4.7788 C   0  0  0  0  0  0  0  0  0  0  0  0
  2  4  1  0  0  0  0
  3  5  1  0  0  0  0
  4  7  1  0  0  0  0
  6  1  1  0  0  0  0
  7 10  1  0  0  0  0
  8  6  1  0  0  0  0
  8 11  1  0  0  0  0
  9  6  1  0  0  0  0
 10 13  1  0  0  0  0
 11 14  1  0  0  0  0
 12  9  1  0  0  0  0
 14 12  1  0  0  0  0
 14 15  1  0  0  0  0
 15 16  1  0  0  0  0
 15 17  1  0  0  0  0
 18  2  1  0  0  0  0
 18 23  2  0  0  0  0
 19  1  1  0  0  0  0
 19 18  1  0  0  0  0
 20 19  2  0  0  0  0
 21  3  1  0  0  0  0
 21 20  1  0  0  0  0
 22 21  2  0  0  0  0
 22 23  1  0  0  0  0
M  END
>  <CHROM.1>
-166.41877780,-82.55520211,-114.01289418,107.92138157,-171.76007140,57.94719817
85.51016185,-154.23555447,-97.17375321,-167.20365631,105.62758094,-13.70156367
-0.31309292,1.32416519,-0.87129741,-0.98665168,-1.40534774

>  <Name>
1uui_lig

>  <RI>
0

>  <Rbt.Current_Directory>
/home/itssahil/PROJECTS/Mol_Feturizer/New_Systems/rnas/1uui

>  <Rbt.Executable>
rbdock ($Id: //depot/dev/client3/rdock/2013.1/src/exe/rbdock.cxx#4 $)

>  <Rbt.Library>
libRbt.so (2013.1, Build901 2013/11/27)

>  <Rbt.Parameter_File>
/export/apps/rDock/src/rDock_2013.1_src/data/scripts/dock_solv.prm

>  <Rbt.Receptor>
prm/pocket_docking_7.prm

>  <SCORE>
-29.4839

>  <SCORE.INTER>
-29.3194

>  <SCORE.INTER.CONST>
1

>  <SCORE.INTER.POLAR>
-3.5877

>  <SCORE.INTER.ROT>
10

>  <SCORE.INTER.SOLV>
8.58683

>  <SCORE.INTER.VDW>
-20.7162

>  <SCORE.INTER.norm>
-1.27476

>  <SCORE.INTRA>
-0.164518

>  <SCORE.INTRA.DIHEDRAL>
1.37767

>  <SCORE.INTRA.DIHEDRAL.0>
23.4151

>  <SCORE.INTRA.POLAR>
0

>  <SCORE.INTRA.POLAR.0>
0

>  <SCORE.INTRA.REPUL>
0

>  <SCORE.INTRA.REPUL.0>
0

>  <SCORE.INTRA.SOLV>
0.822185

>  <SCORE.INTRA.SOLV.lig_0>
-17.3568

>  <SCORE.INTRA.VDW>
-1.26445

>  <SCORE.INTRA.VDW.0>
1.0768

>  <SCORE.INTRA.norm>
-0.00715295

>  <SCORE.RESTR>
0

>  <SCORE.RESTR.CAVITY>
0

>  <SCORE.RESTR.norm>
0

>  <SCORE.SYSTEM>
0

>  <SCORE.SYSTEM.CONST>
0

>  <SCORE.SYSTEM.DIHEDRAL>
0

>  <SCORE.SYSTEM.SOLV>
0

>  <SCORE.SYSTEM.norm>
0

>  <SCORE.heavy>
23

>  <SCORE.norm>
-1.28191

>  <RMSD>
7.009

$$$$
1uui_lig
 OpenBabel11021811413D
libRbt.so/2013.1/901 2013/11/27
 23 24  0  0  0  0  0  0  0  0999 V2000
  -11.9504    0.8759    0.6885 C   0  0  0  0  0  0  0  0  0  0  0  0
  -13.3639   -1.5303    1.5033 O   0  0  0  0  0  0  0  0  0  0  0  0
  -11.8061    2.1507    5.5686 O   0  0  0  0  0  0  0  0  0  0  0  0
  -14.7640   -1.8173    1.6090 C   0  0  0  0  0  0  0  0  0  0  0  0
  -12.9705    2.6829    6.2050 C   0  0  0  0  0  0  0  0  0  0  0  0
  -10.7897    1.8210    0.5940 N   0  0  0  0  0  0  0  0  0  0  0  0
  -15.3432   -2.0043    0.2058 C   0  0  0  0  0  0  0  0  0  0  0  0
  -11.2332    3.1805    0.1819 C   0  0  0  0  0  0  0  0  0  0  0  0
   -9.7727    1.3188   -0.3672 C   0  0  0  0  0  0  0  0  0  0  0  0
  -15.1552   -0.7234   -0.6133 C   0  0  0  0  0  0  0  0  0  0  0  0
  -11.9051    3.1715   -1.2017 C   0  0  0  0  0  0  0  0  0  0  0  0
  -10.3608    1.1495   -1.7785 C   0  0  0  0  0  0  0  0  0  0  0  0
  -15.0586   -1.0655   -2.0499 N   0  0  0  0  0  0  0  0  0  0  0  0
  -11.6443    1.8997   -1.9460 N   0  0  0  0  0  0  0  0  0  0  0  0
  -12.5057    1.5417   -2.9997 C   0  0  0  0  0  0  0  0  0  0  0  0
  -12.0184    1.3198   -4.2537 N   0  0  0  0  0  0  0  0  0  0  0  0
  -13.8579    1.5400   -2.8234 N   0  0  0  0  0  0  0  0  0  0  0  0
  -12.9754   -0.6034    2.5212 C   0  0  0  0  0  0  0  0  0  0  0  0
  -12.2815    0.5870    2.1711 C   0  0  0  0  0  0  0  0  0  0  0  0
  -11.8932    1.5037    3.1873 C   0  0  0  0  0  0  0  0  0  0  0  0
  -12.1989    1.2288    4.5480 C   0  0  0  0  0  0  0  0  0  0  0  0
  -12.8931    0.0398    4.8942 C   0  0  0  0  0  0  0  0  0  0  0  0
  -13.2801   -0.8763    3.8810 C   0  0  0  0  0  0  0  0  0  0  0  0
  2  4  1  0  0  0  0
  3  5  1  0  0  0  0
  4  7  1  0  0  0  0
  6  1  1  0  0  0  0
  7 10  1  0  0  0  0
  8  6  1  0  0  0  0
  8 11  1  0  0  0  0
  9  6  1  0  0  0  0
 10 13  1  0  0  0  0
 11 14  1  0  0  0  0
 12  9  1  0  0  0  0
 14 12  1  0  0  0  0
 14 15  1  0  0  0  0
 15 16  1  0  0  0  0
 15 17  1  0  0  0  0
 18  2  1  0  0  0  0
 18 23  2  0  0  0  0
 19  1  1  0  0  0  0
 19 18  1  0  0  0  0
 20 19  2  0  0  0  0
 21  3  1  0  0  0  0
 21 20  1  0  0  0  0
 22 21  2  0  0  0  0
 22 23  1  0  0  0  0
M  END
>  <CHROM.1>
144.50674813,-60.41655086,-106.43800349,151.70187387,63.93010148,123.13052468
-168.20498318,169.47282352,-127.15530135,-156.99361007,116.35141953,-12.63392626
0.75932743,0.76416642,-1.57269872,0.80243417,1.58545868

>  <Name>
1uui_lig

>  <RI>
0

>  <Rbt.Current_Directory>
/home/itssahil/PROJECTS/Mol_Feturizer/New_Systems/rnas/1uui

>  <Rbt.Executable>
rbdock ($Id: //depot/dev/client3/rdock/2013.1/src/exe/rbdock.cxx#4 $)

>  <Rbt.Library>
libRbt.so (2013.1, Build901 2013/11/27)

>  <Rbt.Parameter_File>
/export/apps/rDock/src/rDock_2013.1_src/data/scripts/dock_solv.prm

>  <Rbt.Receptor>
prm/pocket_docking_4.prm

>  <SCORE>
-19.3239

>  <SCORE.INTER>
-15.7984

>  <SCORE.INTER.CONST>
1

>  <SCORE.INTER.POLAR>
-2.25578

>  <SCORE.INTER.ROT>
10

>  <SCORE.INTER.SOLV>
5.41293

>  <SCORE.INTER.VDW>
-15.084

>  <SCORE.INTER.norm>
-0.686885

>  <SCORE.INTRA>
-4.23198

>  <SCORE.INTRA.DIHEDRAL>
-1.8345

>  <SCORE.INTRA.DIHEDRAL.0>
23.4151

>  <SCORE.INTRA.POLAR>
-1

>  <SCORE.INTRA.POLAR.0>
0

>  <SCORE.INTRA.REPUL>
0

>  <SCORE.INTRA.REPUL.0>
0

>  <SCORE.INTRA.SOLV>
1.17086

>  <SCORE.INTRA.SOLV.lig_0>
-17.3568

>  <SCORE.INTRA.VDW>
-0.500158

>  <SCORE.INTRA.VDW.0>
1.0768

>  <SCORE.INTRA.norm>
-0.183999

>  <SCORE.RESTR>
0.706382

>  <SCORE.RESTR.CAVITY>
0.706382

>  <SCORE.RESTR.norm>
0.0307122

>  <SCORE.SYSTEM>
0

>  <SCORE.SYSTEM.CONST>
0

>  <SCORE.SYSTEM.DIHEDRAL>
0

>  <SCORE.SYSTEM.SOLV>
0

>  <SCORE.SYSTEM.norm>
0

>  <SCORE.heavy>
23

>  <SCORE.norm>
-0.840172

>  <RMSD>
7.013

$$$$
1uui_lig
 OpenBabel11021811413D
libRbt.so/2013.1/901 2013/11/27
 23 24  0  0  0  0  0  0  0  0999 V2000
   -7.0866   -0.5592   -0.8149 C   0  0  0  0  0  0  0  0  0  0  0  0
   -8.9534    0.9443   -2.4598 O   0  0  0  0  0  0  0  0  0  0  0  0
   -3.4702    0.8925   -4.0205 O   0  0  0  0  0  0  0  0  0  0  0  0
   -9.5589    2.1837   -2.8487 C   0  0  0  0  0  0  0  0  0  0  0  0
   -2.7316    1.7925   -3.1908 C   0  0  0  0  0  0  0  0  0  0  0  0
   -7.9184    0.3350    0.0557 N   0  0  0  0  0  0  0  0  0  0  0  0
  -11.0456    2.1474   -2.4916 C   0  0  0  0  0  0  0  0  0  0  0  0
   -7.1165    1.4725    0.5828 C   0  0  0  0  0  0  0  0  0  0  0  0
   -8.5060   -0.4252    1.1903 C   0  0  0  0  0  0  0  0  0  0  0  0
  -11.6986    0.8994   -3.0942 C   0  0  0  0  0  0  0  0  0  0  0  0
   -5.9373    0.9935    1.4463 C   0  0  0  0  0  0  0  0  0  0  0  0
   -7.4172   -1.0624    2.0705 C   0  0  0  0  0  0  0  0  0  0  0  0
  -13.1712    1.0392   -3.0435 N   0  0  0  0  0  0  0  0  0  0  0  0
   -6.0747   -0.4440    1.8394 N   0  0  0  0  0  0  0  0  0  0  0  0
   -4.9254   -1.1503    2.2404 C   0  0  0  0  0  0  0  0  0  0  0  0
   -3.9979   -1.5501    1.3245 N   0  0  0  0  0  0  0  0  0  0  0  0
   -4.7794   -1.5672    3.5305 N   0  0  0  0  0  0  0  0  0  0  0  0
   -7.5778    0.9267   -2.8516 C   0  0  0  0  0  0  0  0  0  0  0  0
   -6.6276    0.2056   -2.0780 C   0  0  0  0  0  0  0  0  0  0  0  0
   -5.2598    0.1947   -2.4690 C   0  0  0  0  0  0  0  0  0  0  0  0
   -4.8462    0.9031   -3.6299 C   0  0  0  0  0  0  0  0  0  0  0  0
   -5.7976    1.6211   -4.4009 C   0  0  0  0  0  0  0  0  0  0  0  0
   -7.1627    1.6336   -4.0110 C   0  0  0  0  0  0  0  0  0  0  0  0
  2  4  1  0  0  0  0
  3  5  1  0  0  0  0
  4  7  1  0  0  0  0
  6  1  1  0  0  0  0
  7 10  1  0  0  0  0
  8  6  1  0  0  0  0
  8 11  1  0  0  0  0
  9  6  1  0  0  0  0
 10 13  1  0  0  0  0
 11 14  1  0  0  0  0
 12  9  1  0  0  0  0
 14 12  1  0  0  0  0
 14 15  1  0  0  0  0
 15 16  1  0  0  0  0
 15 17  1  0  0  0  0
 18  2  1  0  0  0  0
 18 23  2  0  0  0  0
 19  1  1  0  0  0  0
 19 18  1  0  0  0  0
 20 19  2  0  0  0  0
 21  3  1  0  0  0  0
 21 20  1  0  0  0  0
 22 21  2  0  0  0  0
 22 23  1  0  0  0  0
M  END
>  <CHROM.1>
176.80824890,-53.41844130,-64.74995359,-165.80317460,93.41983061,-74.31078250
-22.79981128,-127.89220611,148.99294898,-49.60051337,-77.51315348,-7.06375279
0.48062535,-1.13749126,0.71663555,-0.06863079,1.92676139

>  <Name>
1uui_lig

>  <RI>
0

>  <Rbt.Current_Directory>
/home/itssahil/PROJECTS/Mol_Feturizer/New_Systems/rnas/1uui

>  <Rbt.Executable>
rbdock ($Id: //depot/dev/client3/rdock/2013.1/src/exe/rbdock.cxx#4 $)

>  <Rbt.Library>
libRbt.so (2013.1, Build901 2013/11/27)

>  <Rbt.Parameter_File>
/export/apps/rDock/src/rDock_2013.1_src/data/scripts/dock_solv.prm

>  <Rbt.Receptor>
prm/pocket_docking_8.prm

>  <SCORE>
-24.9985

>  <SCORE.INTER>
-17.4935

>  <SCORE.INTER.CONST>
1

>  <SCORE.INTER.POLAR>
-3.23646

>  <SCORE.INTER.ROT>
10

>  <SCORE.INTER.SOLV>
4.82303

>  <SCORE.INTER.VDW>
-12.7485

>  <SCORE.INTER.norm>
-0.760587

>  <SCORE.INTRA>
-7.50501

>  <SCORE.INTRA.DIHEDRAL>
-10.1518

>  <SCORE.INTRA.DIHEDRAL.0>
23.4151

>  <SCORE.INTRA.POLAR>
-0.649766

>  <SCORE.INTRA.POLAR.0>
0

>  <SCORE.INTRA.REPUL>
0

>  <SCORE.INTRA.REPUL.0>
0

>  <SCORE.INTRA.SOLV>
0.407431

>  <SCORE.INTRA.SOLV.lig_0>
-17.3568

>  <SCORE.INTRA.VDW>
-0.423645

>  <SCORE.INTRA.VDW.0>
1.0768

>  <SCORE.INTRA.norm>
-0.326305

>  <SCORE.RESTR>
0

>  <SCORE.RESTR.CAVITY>
0

>  <SCORE.RESTR.norm>
0

>  <SCORE.SYSTEM>
0

>  <SCORE.SYSTEM.CONST>
0

>  <SCORE.SYSTEM.DIHEDRAL>
0

>  <SCORE.SYSTEM.SOLV>
0

>  <SCORE.SYSTEM.norm>
0

>  <SCORE.heavy>
23

>  <SCORE.norm>
-1.08689

>  <RMSD>
7.016

$$$$
1uui_lig
 OpenBabel11021811413D
libRbt.so/2013.1/901 2013/11/27
 23 24  0  0  0  0  0  0  0  0999 V2000
   -6.8668   -1.3851    1.4354 C   0  0  0  0  0  0  0  0  0  0  0  0
   -6.9792   -0.6816   -1.3831 O   0  0  0  0  0  0  0  0  0  0  0  0
  -11.4552    0.6667    1.8806 O   0  0  0  0  0  0  0  0  0  0  0  0
   -6.4190    0.5022   -1.9651 C   0  0  0  0  0  0  0  0  0  0  0  0
  -11.1731    1.8627    2.6114 C   0  0  0  0  0  0  0  0  0  0  0  0
   -5.9266   -0.3829    2.0364 N   0  0  0  0  0  0  0  0  0  0  0  0
   -5.5505    0.1085   -3.1608 C   0  0  0  0  0  0  0  0  0  0  0  0
   -4.9793    0.1465    1.0179 C   0  0  0  0  0  0  0  0  0  0  0  0
   -5.1611   -0.9810    3.1619 C   0  0  0  0  0  0  0  0  0  0  0  0
   -6.4381   -0.2865   -4.3453 C   0  0  0  0  0  0  0  0  0  0  0  0
   -4.1062   -0.9653    0.4117 C   0  0  0  0  0  0  0  0  0  0  0  0
   -4.3312   -2.1922    2.7031 C   0  0  0  0  0  0  0  0  0  0  0  0
   -6.3699    0.7641   -5.3855 N   0  0  0  0  0  0  0  0  0  0  0  0
   -4.1596   -2.2254    1.2173 N   0  0  0  0  0  0  0  0  0  0  0  0
   -3.7927   -3.4380    0.6046 C   0  0  0  0  0  0  0  0  0  0  0  0
   -4.0726   -3.6676   -0.7099 N   0  0  0  0  0  0  0  0  0  0  0  0
   -3.2719   -4.4605    1.3414 N   0  0  0  0  0  0  0  0  0  0  0  0
   -8.0995   -0.3409   -0.5614 C   0  0  0  0  0  0  0  0  0  0  0  0
   -8.0905   -0.6653    0.8227 C   0  0  0  0  0  0  0  0  0  0  0  0
   -9.2089   -0.3284    1.6350 C   0  0  0  0  0  0  0  0  0  0  0  0
  -10.3308    0.3304    1.0628 C   0  0  0  0  0  0  0  0  0  0  0  0
  -10.3363    0.6542   -0.3194 C   0  0  0  0  0  0  0  0  0  0  0  0
   -9.2212    0.3175   -1.1312 C   0  0  0  0  0  0  0  0  0  0  0  0
  2  4  1  0  0  0  0
  3  5  1  0  0  0  0
  4  7  1  0  0  0  0
  6  1  1  0  0  0  0
  7 10  1  0  0  0  0
  8  6  1  0  0  0  0
  8 11  1  0  0  0  0
  9  6  1  0  0  0  0
 10 13  1  0  0  0  0
 11 14  1  0  0  0  0
 12  9  1  0  0  0  0
 14 12  1  0  0  0  0
 14 15  1  0  0  0  0
 15 16  1  0  0  0  0
 15 17  1  0  0  0  0
 18  2  1  0  0  0  0
 18 23  2  0  0  0  0
 19  1  1  0  0  0  0
 19 18  1  0  0  0  0
 20 19  2  0  0  0  0
 21  3  1  0  0  0  0
 21 20  1  0  0  0  0
 22 21  2  0  0  0  0
 22 23  1  0  0  0  0
M  END
>  <CHROM.1>
-161.73816829,74.51257406,-86.22175637,108.34554522,-38.95180669,-35.08183408
85.30134957,-110.57517444,-120.26781979,94.97720712,80.10164962,-6.74189812
-0.74087573,0.08678954,0.10377536,-0.49550789,1.79763507

>  <Name>
1uui_lig

>  <RI>
0

>  <Rbt.Current_Directory>
/home/itssahil/PROJECTS/Mol_Feturizer/New_Systems/rnas/1uui

>  <Rbt.Executable>
rbdock ($Id: //depot/dev/client3/rdock/2013.1/src/exe/rbdock.cxx#4 $)

>  <Rbt.Library>
libRbt.so (2013.1, Build901 2013/11/27)

>  <Rbt.Parameter_File>
/export/apps/rDock/src/rDock_2013.1_src/data/scripts/dock_solv.prm

>  <Rbt.Receptor>
prm/pocket_docking_7.prm

>  <SCORE>
-29.3724

>  <SCORE.INTER>
-26.3213

>  <SCORE.INTER.CONST>
1

>  <SCORE.INTER.POLAR>
-3.45647

>  <SCORE.INTER.ROT>
10

>  <SCORE.INTER.SOLV>
7.56344

>  <SCORE.INTER.VDW>
-18.8138

>  <SCORE.INTER.norm>
-1.1444

>  <SCORE.INTRA>
-3.05112

>  <SCORE.INTRA.DIHEDRAL>
-0.910219

>  <SCORE.INTRA.DIHEDRAL.0>
23.4151

>  <SCORE.INTRA.POLAR>
0

>  <SCORE.INTRA.POLAR.0>
0

>  <SCORE.INTRA.REPUL>
0

>  <SCORE.INTRA.REPUL.0>
0

>  <SCORE.INTRA.SOLV>
0.282616

>  <SCORE.INTRA.SOLV.lig_0>
-17.3568

>  <SCORE.INTRA.VDW>
-2.73732

>  <SCORE.INTRA.VDW.0>
1.0768

>  <SCORE.INTRA.norm>
-0.132657

>  <SCORE.RESTR>
0

>  <SCORE.RESTR.CAVITY>
0

>  <SCORE.RESTR.norm>
0

>  <SCORE.SYSTEM>
0

>  <SCORE.SYSTEM.CONST>
0

>  <SCORE.SYSTEM.DIHEDRAL>
0

>  <SCORE.SYSTEM.SOLV>
0

>  <SCORE.SYSTEM.norm>
0

>  <SCORE.heavy>
23

>  <SCORE.norm>
-1.27706

>  <RMSD>
7.018

$$$$
1uui_lig
 OpenBabel11021811413D
libRbt.so/2013.1/901 2013/11/27
 23 24  0  0  0  0  0  0  0  0999 V2000
  -12.5427   -0.1472    0.9483 C   0  0  0  0  0  0  0  0  0  0  0  0
  -14.8497   -0.9240    2.5376 O   0  0  0  0  0  0  0  0  0  0  0  0
  -11.1513    2.7588    4.8317 O   0  0  0  0  0  0  0  0  0  0  0  0
  -15.4834   -1.6865    3.5725 C   0  0  0  0  0  0  0  0  0  0  0  0
  -11.6877    4.0823    4.7634 C   0  0  0  0  0  0  0  0  0  0  0  0
  -11.7846    0.8488    0.1220 N   0  0  0  0  0  0  0  0  0  0  0  0
  -16.5639   -2.5723    2.9504 C   0  0  0  0  0  0  0  0  0  0  0  0
  -12.6419    2.0081   -0.2465 C   0  0  0  0  0  0  0  0  0  0  0  0
  -11.2482    0.2166   -1.1121 C   0  0  0  0  0  0  0  0  0  0  0  0
  -15.9151   -3.7237    2.1755 C   0  0  0  0  0  0  0  0  0  0  0  0
  -13.8591    1.5799   -1.0837 C   0  0  0  0  0  0  0  0  0  0  0  0
  -12.3725   -0.3648   -1.9863 C   0  0  0  0  0  0  0  0  0  0  0  0
  -16.9537   -4.4545    1.4154 N   0  0  0  0  0  0  0  0  0  0  0  0
  -13.7127    0.1907   -1.6206 N   0  0  0  0  0  0  0  0  0  0  0  0
  -14.8674   -0.5066   -2.0218 C   0  0  0  0  0  0  0  0  0  0  0  0
  -15.4321   -1.4454   -1.2102 N   0  0  0  0  0  0  0  0  0  0  0  0
  -15.3683   -0.3573   -3.2814 N   0  0  0  0  0  0  0  0  0  0  0  0
  -13.9224    0.0029    3.1096 C   0  0  0  0  0  0  0  0  0  0  0  0
  -12.7788    0.4118    2.3706 C   0  0  0  0  0  0  0  0  0  0  0  0
  -11.8570    1.3303    2.9454 C   0  0  0  0  0  0  0  0  0  0  0  0
  -12.0802    1.8368    4.2546 C   0  0  0  0  0  0  0  0  0  0  0  0
  -13.2238    1.4275    4.9895 C   0  0  0  0  0  0  0  0  0  0  0  0
  -14.1439    0.5100    4.4173 C   0  0  0  0  0  0  0  0  0  0  0  0
  2  4  1  0  0  0  0
  3  5  1  0  0  0  0
  4  7  1  0  0  0  0
  6  1  1  0  0  0  0
  7 10  1  0  0  0  0
  8  6  1  0  0  0  0
  8 11  1  0  0  0  0
  9  6  1  0  0  0  0
 10 13  1  0  0  0  0
 11 14  1  0  0  0  0
 12  9  1  0  0  0  0
 14 12  1  0  0  0  0
 14 15  1  0  0  0  0
 15 16  1  0  0  0  0
 15 17  1  0  0  0  0
 18  2  1  0  0  0  0
 18 23  2  0  0  0  0
 19  1  1  0  0  0  0
 19 18  1  0  0  0  0
 20 19  2  0  0  0  0
 21  3  1  0  0  0  0
 21 20  1  0  0  0  0
 22 21  2  0  0  0  0
 22 23  1  0  0  0  0
M  END
>  <CHROM.1>
174.59731837,72.68729471,-72.27977137,-171.68090663,-30.89482639,-100.61302340
-179.66516486,173.43103992,151.16607629,151.06073526,102.59417781,-13.72070871
-0.00654645,1.36759237,-0.81798464,-0.85163357,-1.62949465

>  <Name>
1uui_lig

>  <RI>
0

>  <Rbt.Current_Directory>
/home/itssahil/PROJECTS/Mol_Feturizer/New_Systems/rnas/1uui

>  <Rbt.Executable>
rbdock ($Id: //depot/dev/client3/rdock/2013.1/src/exe/rbdock.cxx#4 $)

>  <Rbt.Library>
libRbt.so (2013.1, Build901 2013/11/27)

>  <Rbt.Parameter_File>
/export/apps/rDock/src/rDock_2013.1_src/data/scripts/dock_solv.prm

>  <Rbt.Receptor>
prm/pocket_docking_7.prm

>  <SCORE>
-22.1422

>  <SCORE.INTER>
-17.123

>  <SCORE.INTER.CONST>
1

>  <SCORE.INTER.POLAR>
-2.62533

>  <SCORE.INTER.ROT>
10

>  <SCORE.INTER.SOLV>
5.83963

>  <SCORE.INTER.VDW>
-14.8774

>  <SCORE.INTER.norm>
-0.744476

>  <SCORE.INTRA>
-5.01921

>  <SCORE.INTRA.DIHEDRAL>
-10.3889

>  <SCORE.INTRA.DIHEDRAL.0>
23.4151

>  <SCORE.INTRA.POLAR>
0

>  <SCORE.INTRA.POLAR.0>
0

>  <SCORE.INTRA.REPUL>
0

>  <SCORE.INTRA.REPUL.0>
0

>  <SCORE.INTRA.SOLV>
0.347399

>  <SCORE.INTRA.SOLV.lig_0>
-17.3568

>  <SCORE.INTRA.VDW>
0.00153453

>  <SCORE.INTRA.VDW.0>
1.0768

>  <SCORE.INTRA.norm>
-0.218227

>  <SCORE.RESTR>
0

>  <SCORE.RESTR.CAVITY>
0

>  <SCORE.RESTR.norm>
0

>  <SCORE.SYSTEM>
0

>  <SCORE.SYSTEM.CONST>
0

>  <SCORE.SYSTEM.DIHEDRAL>
0

>  <SCORE.SYSTEM.SOLV>
0

>  <SCORE.SYSTEM.norm>
0

>  <SCORE.heavy>
23

>  <SCORE.norm>
-0.962703

>  <RMSD>
7.032

$$$$
1uui_lig
 OpenBabel11021811413D
libRbt.so/2013.1/901 2013/11/27
 23 24  0  0  0  0  0  0  0  0999 V2000
  -13.3270    1.2056   -0.0430 C   0  0  0  0  0  0  0  0  0  0  0  0
  -14.0466   -1.4595    0.8683 O   0  0  0  0  0  0  0  0  0  0  0  0
  -11.7779    2.1340    4.6688 O   0  0  0  0  0  0  0  0  0  0  0  0
  -15.3605   -1.8525    1.2846 C   0  0  0  0  0  0  0  0  0  0  0  0
  -12.7758    2.5227    5.6160 C   0  0  0  0  0  0  0  0  0  0  0  0
  -12.8461    0.1402   -0.9827 N   0  0  0  0  0  0  0  0  0  0  0  0
  -15.2556   -3.1087    2.1506 C   0  0  0  0  0  0  0  0  0  0  0  0
  -11.3602    0.0589   -0.9910 C   0  0  0  0  0  0  0  0  0  0  0  0
  -13.3368    0.3892   -2.3639 C   0  0  0  0  0  0  0  0  0  0  0  0
  -16.5945   -3.3802    2.8439 C   0  0  0  0  0  0  0  0  0  0  0  0
  -10.7147    1.3760   -1.4543 C   0  0  0  0  0  0  0  0  0  0  0  0
  -12.8536    1.7471   -2.9014 C   0  0  0  0  0  0  0  0  0  0  0  0
  -16.5167   -4.6590    3.5849 N   0  0  0  0  0  0  0  0  0  0  0  0
  -11.7037    2.2871   -2.1112 N   0  0  0  0  0  0  0  0  0  0  0  0
  -11.4073    3.6601   -2.1982 C   0  0  0  0  0  0  0  0  0  0  0  0
  -11.5173    4.4677   -1.1052 N   0  0  0  0  0  0  0  0  0  0  0  0
  -11.1346    4.2383   -3.4027 N   0  0  0  0  0  0  0  0  0  0  0  0
  -13.4808   -0.5549    1.8210 C   0  0  0  0  0  0  0  0  0  0  0  0
  -13.1125    0.7590    1.4218 C   0  0  0  0  0  0  0  0  0  0  0  0
  -12.5459    1.6537    2.3718 C   0  0  0  0  0  0  0  0  0  0  0  0
  -12.3494    1.2337    3.7154 C   0  0  0  0  0  0  0  0  0  0  0  0
  -12.7194   -0.0785    4.1112 C   0  0  0  0  0  0  0  0  0  0  0  0
  -13.2838   -0.9726    3.1638 C   0  0  0  0  0  0  0  0  0  0  0  0
  2  4  1  0  0  0  0
  3  5  1  0  0  0  0
  4  7  1  0  0  0  0
  6  1  1  0  0  0  0
  7 10  1  0  0  0  0
  8  6  1  0  0  0  0
  8 11  1  0  0  0  0
  9  6  1  0  0  0  0
 10 13  1  0  0  0  0
 11 14  1  0  0  0  0
 12  9  1  0  0  0  0
 14 12  1  0  0  0  0
 14 15  1  0  0  0  0
 15 16  1  0  0  0  0
 15 17  1  0  0  0  0
 18  2  1  0  0  0  0
 18 23  2  0  0  0  0
 19  1  1  0  0  0  0
 19 18  1  0  0  0  0
 20 19  2  0  0  0  0
 21  3  1  0  0  0  0
 21 20  1  0  0  0  0
 22 21  2  0  0  0  0
 22 23  1  0  0  0  0
M  END
>  <CHROM.1>
-90.20884035,168.24408418,-71.77968206,175.16279792,60.41495834,-75.83005017
69.01508043,102.40132476,-119.53981180,-45.77229675,110.25888292,-13.06108220
0.50687219,0.85466568,0.67921456,-1.00684335,-1.60605962

>  <Name>
1uui_lig

>  <RI>
0

>  <Rbt.Current_Directory>
/home/itssahil/PROJECTS/Mol_Feturizer/New_Systems/rnas/1uui

>  <Rbt.Executable>
rbdock ($Id: //depot/dev/client3/rdock/2013.1/src/exe/rbdock.cxx#4 $)

>  <Rbt.Library>
libRbt.so (2013.1, Build901 2013/11/27)

>  <Rbt.Parameter_File>
/export/apps/rDock/src/rDock_2013.1_src/data/scripts/dock_solv.prm

>  <Rbt.Receptor>
prm/pocket_docking_5.prm

>  <SCORE>
-20.0526

>  <SCORE.INTER>
-12.1787

>  <SCORE.INTER.CONST>
1

>  <SCORE.INTER.POLAR>
-1.63329

>  <SCORE.INTER.ROT>
10

>  <SCORE.INTER.SOLV>
4.33686

>  <SCORE.INTER.VDW>
-14.3871

>  <SCORE.INTER.norm>
-0.529507

>  <SCORE.INTRA>
-8.01356

>  <SCORE.INTRA.DIHEDRAL>
-6.66093

>  <SCORE.INTRA.DIHEDRAL.0>
23.4151

>  <SCORE.INTRA.POLAR>
-0.743995

>  <SCORE.INTRA.POLAR.0>
0

>  <SCORE.INTRA.REPUL>
0

>  <SCORE.INTRA.REPUL.0>
0

>  <SCORE.INTRA.SOLV>
0.233454

>  <SCORE.INTRA.SOLV.lig_0>
-17.3568

>  <SCORE.INTRA.VDW>
-2.27024

>  <SCORE.INTRA.VDW.0>
1.0768

>  <SCORE.INTRA.norm>
-0.348416

>  <SCORE.RESTR>
0.139642

>  <SCORE.RESTR.CAVITY>
0.139642

>  <SCORE.RESTR.norm>
0.00607139

>  <SCORE.SYSTEM>
0

>  <SCORE.SYSTEM.CONST>
0

>  <SCORE.SYSTEM.DIHEDRAL>
0

>  <SCORE.SYSTEM.SOLV>
0

>  <SCORE.SYSTEM.norm>
0

>  <SCORE.heavy>
23

>  <SCORE.norm>
-0.871851

>  <RMSD>
7.035

$$$$
1uui_lig
 OpenBabel11021811413D
libRbt.so/2013.1/901 2013/11/27
 23 24  0  0  0  0  0  0  0  0999 V2000
   -7.2944    0.6934   -0.2917 C   0  0  0  0  0  0  0  0  0  0  0  0
   -5.5793    0.5628    2.0519 O   0  0  0  0  0  0  0  0  0  0  0  0
   -9.7734    4.4245    2.0312 O   0  0  0  0  0  0  0  0  0  0  0  0
   -5.8666   -0.4731    2.9998 C   0  0  0  0  0  0  0  0  0  0  0  0
   -9.4930    5.4254    1.0496 C   0  0  0  0  0  0  0  0  0  0  0  0
   -5.8303    0.4882   -0.5440 N   0  0  0  0  0  0  0  0  0  0  0  0
   -4.8626   -1.6120    2.8154 C   0  0  0  0  0  0  0  0  0  0  0  0
   -5.1732    1.7545   -0.9675 C   0  0  0  0  0  0  0  0  0  0  0  0
   -5.6109   -0.5549   -1.5804 C   0  0  0  0  0  0  0  0  0  0  0  0
   -5.2644   -2.4750    1.6150 C   0  0  0  0  0  0  0  0  0  0  0  0
   -5.7706    2.3033   -2.2744 C   0  0  0  0  0  0  0  0  0  0  0  0
   -6.2723   -0.1752   -2.9163 C   0  0  0  0  0  0  0  0  0  0  0  0
   -4.3168   -3.6037    1.4790 N   0  0  0  0  0  0  0  0  0  0  0  0
   -6.6024    1.2824   -2.9855 N   0  0  0  0  0  0  0  0  0  0  0  0
   -7.5499    1.7183   -3.9303 C   0  0  0  0  0  0  0  0  0  0  0  0
   -8.8159    2.0484   -3.5466 N   0  0  0  0  0  0  0  0  0  0  0  0
   -7.2661    1.6921   -5.2638 N   0  0  0  0  0  0  0  0  0  0  0  0
   -6.6347    1.5283    2.0461 C   0  0  0  0  0  0  0  0  0  0  0  0
   -7.4988    1.6300    0.9217 C   0  0  0  0  0  0  0  0  0  0  0  0
   -8.5442    2.5948    0.9186 C   0  0  0  0  0  0  0  0  0  0  0  0
   -8.7228    3.4537    2.0369 C   0  0  0  0  0  0  0  0  0  0  0  0
   -7.8592    3.3489    3.1587 C   0  0  0  0  0  0  0  0  0  0  0  0
   -6.8148    2.3871    3.1625 C   0  0  0  0  0  0  0  0  0  0  0  0
  2  4  1  0  0  0  0
  3  5  1  0  0  0  0
  4  7  1  0  0  0  0
  6  1  1  0  0  0  0
  7 10  1  0  0  0  0
  8  6  1  0  0  0  0
  8 11  1  0  0  0  0
  9  6  1  0  0  0  0
 10 13  1  0  0  0  0
 11 14  1  0  0  0  0
 12  9  1  0  0  0  0
 14 12  1  0  0  0  0
 14 15  1  0  0  0  0
 15 16  1  0  0  0  0
 15 17  1  0  0  0  0
 18  2  1  0  0  0  0
 18 23  2  0  0  0  0
 19  1  1  0  0  0  0
 19 18  1  0  0  0  0
 20 19  2  0  0  0  0
 21  3  1  0  0  0  0
 21 20  1  0  0  0  0
 22 21  2  0  0  0  0
 22 23  1  0  0  0  0
M  END
>  <CHROM.1>
170.04520787,-78.95283220,-65.83273611,-177.77715626,53.53628694,-87.78115908
-14.61804996,-44.48534331,-110.25037805,-38.13056501,-67.80683510,-6.82462870
1.18911451,0.03082860,-2.39572677,-0.97521337,1.55022156

>  <Name>
1uui_lig

>  <RI>
0

>  <Rbt.Current_Directory>
/home/itssahil/PROJECTS/Mol_Feturizer/New_Systems/rnas/1uui

>  <Rbt.Executable>
rbdock ($Id: //depot/dev/client3/rdock/2013.1/src/exe/rbdock.cxx#4 $)

>  <Rbt.Library>
libRbt.so (2013.1, Build901 2013/11/27)

>  <Rbt.Parameter_File>
/export/apps/rDock/src/rDock_2013.1_src/data/scripts/dock_solv.prm

>  <Rbt.Receptor>
prm/pocket_docking_7.prm

>  <SCORE>
-27.0484

>  <SCORE.INTER>
-16.9707

>  <SCORE.INTER.CONST>
1

>  <SCORE.INTER.POLAR>
-2.8264

>  <SCORE.INTER.ROT>
10

>  <SCORE.INTER.SOLV>
3.76453

>  <SCORE.INTER.VDW>
-13.414

>  <SCORE.INTER.norm>
-0.737856

>  <SCORE.INTRA>
-10.0777

>  <SCORE.INTRA.DIHEDRAL>
-8.88319

>  <SCORE.INTRA.DIHEDRAL.0>
23.4151

>  <SCORE.INTRA.POLAR>
-0.701227

>  <SCORE.INTRA.POLAR.0>
0

>  <SCORE.INTRA.REPUL>
0

>  <SCORE.INTRA.REPUL.0>
0

>  <SCORE.INTRA.SOLV>
0.463181

>  <SCORE.INTRA.SOLV.lig_0>
-17.3568

>  <SCORE.INTRA.VDW>
-3.48352

>  <SCORE.INTRA.VDW.0>
1.0768

>  <SCORE.INTRA.norm>
-0.43816

>  <SCORE.RESTR>
0

>  <SCORE.RESTR.CAVITY>
0

>  <SCORE.RESTR.norm>
0

>  <SCORE.SYSTEM>
0

>  <SCORE.SYSTEM.CONST>
0

>  <SCORE.SYSTEM.DIHEDRAL>
0

>  <SCORE.SYSTEM.SOLV>
0

>  <SCORE.SYSTEM.norm>
0

>  <SCORE.heavy>
23

>  <SCORE.norm>
-1.17602

>  <RMSD>
7.040

$$$$
1uui_lig
 OpenBabel11021811413D
libRbt.so/2013.1/901 2013/11/27
 23 24  0  0  0  0  0  0  0  0999 V2000
   -5.4028   -0.3719    0.2749 C   0  0  0  0  0  0  0  0  0  0  0  0
   -6.0609    0.1475   -2.5088 O   0  0  0  0  0  0  0  0  0  0  0  0
  -10.1724    0.8518    1.3776 O   0  0  0  0  0  0  0  0  0  0  0  0
   -5.8818    1.3543   -3.2608 C   0  0  0  0  0  0  0  0  0  0  0  0
  -10.1394    2.1924    1.8733 C   0  0  0  0  0  0  0  0  0  0  0  0
   -5.4750   -1.7173    0.9338 N   0  0  0  0  0  0  0  0  0  0  0  0
   -6.8454    1.3508   -4.4485 C   0  0  0  0  0  0  0  0  0  0  0  0
   -6.1897   -1.6421    2.2370 C   0  0  0  0  0  0  0  0  0  0  0  0
   -4.1146   -2.2784    1.1462 C   0  0  0  0  0  0  0  0  0  0  0  0
   -6.4436    2.4364   -5.4520 C   0  0  0  0  0  0  0  0  0  0  0  0
   -5.4797   -0.7054    3.2291 C   0  0  0  0  0  0  0  0  0  0  0  0
   -3.2554   -1.3623    2.0342 C   0  0  0  0  0  0  0  0  0  0  0  0
   -7.3616    2.4004   -6.6124 N   0  0  0  0  0  0  0  0  0  0  0  0
   -4.0859   -0.3769    2.7943 N   0  0  0  0  0  0  0  0  0  0  0  0
   -3.4630    0.7691    3.3227 C   0  0  0  0  0  0  0  0  0  0  0  0
   -3.3394    0.9367    4.6702 N   0  0  0  0  0  0  0  0  0  0  0  0
   -3.0907    1.7972    2.5079 N   0  0  0  0  0  0  0  0  0  0  0  0
   -7.0899    0.3273   -1.5314 C   0  0  0  0  0  0  0  0  0  0  0  0
   -6.8155    0.0846   -0.1577 C   0  0  0  0  0  0  0  0  0  0  0  0
   -7.8432    0.2604    0.8102 C   0  0  0  0  0  0  0  0  0  0  0  0
   -9.1397    0.6774    0.4033 C   0  0  0  0  0  0  0  0  0  0  0  0
   -9.4102    0.9201   -0.9690 C   0  0  0  0  0  0  0  0  0  0  0  0
   -8.3857    0.7440   -1.9360 C   0  0  0  0  0  0  0  0  0  0  0  0
  2  4  1  0  0  0  0
  3  5  1  0  0  0  0
  4  7  1  0  0  0  0
  6  1  1  0  0  0  0
  7 10  1  0  0  0  0
  8  6  1  0  0  0  0
  8 11  1  0  0  0  0
  9  6  1  0  0  0  0
 10 13  1  0  0  0  0
 11 14  1  0  0  0  0
 12  9  1  0  0  0  0
 14 12  1  0  0  0  0
 14 15  1  0  0  0  0
 15 16  1  0  0  0  0
 15 17  1  0  0  0  0
 18  2  1  0  0  0  0
 18 23  2  0  0  0  0
 19  1  1  0  0  0  0
 19 18  1  0  0  0  0
 20 19  2  0  0  0  0
 21  3  1  0  0  0  0
 21 20  1  0  0  0  0
 22 21  2  0  0  0  0
 22 23  1  0  0  0  0
M  END
>  <CHROM.1>
-87.78732395,-165.91816377,-67.60953533,178.55926471,-163.26829878,55.90290957
41.80947935,-171.44449954,-124.02914978,-119.19470149,89.16722923,-6.29343924
0.41117448,0.01737724,-1.15193325,0.16493852,-1.39115240

>  <Name>
1uui_lig

>  <RI>
0

>  <Rbt.Current_Directory>
/home/itssahil/PROJECTS/Mol_Feturizer/New_Systems/rnas/1uui

>  <Rbt.Executable>
rbdock ($Id: //depot/dev/client3/rdock/2013.1/src/exe/rbdock.cxx#4 $)

>  <Rbt.Library>
libRbt.so (2013.1, Build901 2013/11/27)

>  <Rbt.Parameter_File>
/export/apps/rDock/src/rDock_2013.1_src/data/scripts/dock_solv.prm

>  <Rbt.Receptor>
prm/pocket_docking_7.prm

>  <SCORE>
-26.0582

>  <SCORE.INTER>
-22.3551

>  <SCORE.INTER.CONST>
1

>  <SCORE.INTER.POLAR>
-3.55027

>  <SCORE.INTER.ROT>
10

>  <SCORE.INTER.SOLV>
5.74252

>  <SCORE.INTER.VDW>
-15.25

>  <SCORE.INTER.norm>
-0.971961

>  <SCORE.INTRA>
-3.70306

>  <SCORE.INTRA.DIHEDRAL>
-6.24509

>  <SCORE.INTRA.DIHEDRAL.0>
23.4151

>  <SCORE.INTRA.POLAR>
0

>  <SCORE.INTRA.POLAR.0>
0

>  <SCORE.INTRA.REPUL>
0

>  <SCORE.INTRA.REPUL.0>
0

>  <SCORE.INTRA.SOLV>
-0.00789837

>  <SCORE.INTRA.SOLV.lig_0>
-17.3568

>  <SCORE.INTRA.VDW>
-0.576566

>  <SCORE.INTRA.VDW.0>
1.0768

>  <SCORE.INTRA.norm>
-0.161003

>  <SCORE.RESTR>
0

>  <SCORE.RESTR.CAVITY>
0

>  <SCORE.RESTR.norm>
0

>  <SCORE.SYSTEM>
0

>  <SCORE.SYSTEM.CONST>
0

>  <SCORE.SYSTEM.DIHEDRAL>
0

>  <SCORE.SYSTEM.SOLV>
0

>  <SCORE.SYSTEM.norm>
0

>  <SCORE.heavy>
23

>  <SCORE.norm>
-1.13296

>  <RMSD>
7.074

$$$$
1uui_lig
 OpenBabel11021811413D
libRbt.so/2013.1/901 2013/11/27
 23 24  0  0  0  0  0  0  0  0999 V2000
  -13.9329    1.0761    2.1254 C   0  0  0  0  0  0  0  0  0  0  0  0
  -13.6098   -1.6581    3.0586 O   0  0  0  0  0  0  0  0  0  0  0  0
  -12.9963    2.5453    6.8610 O   0  0  0  0  0  0  0  0  0  0  0  0
  -14.9606   -1.7015    2.5818 C   0  0  0  0  0  0  0  0  0  0  0  0
  -11.6062    2.7422    7.1310 C   0  0  0  0  0  0  0  0  0  0  0  0
  -12.6772    1.4371    1.3888 N   0  0  0  0  0  0  0  0  0  0  0  0
  -15.0356   -2.6409    1.3772 C   0  0  0  0  0  0  0  0  0  0  0  0
  -12.8928    2.6090    0.4973 C   0  0  0  0  0  0  0  0  0  0  0  0
  -12.1833    0.2874    0.5858 C   0  0  0  0  0  0  0  0  0  0  0  0
  -16.3195   -2.3748    0.5847 C   0  0  0  0  0  0  0  0  0  0  0  0
  -13.9631    2.3294   -0.5715 C   0  0  0  0  0  0  0  0  0  0  0  0
  -13.2245   -0.1698   -0.4501 C   0  0  0  0  0  0  0  0  0  0  0  0
  -16.0502   -2.5389   -0.8613 N   0  0  0  0  0  0  0  0  0  0  0  0
  -14.2731    0.8701   -0.6896 N   0  0  0  0  0  0  0  0  0  0  0  0
  -15.4917    0.4809   -1.2761 C   0  0  0  0  0  0  0  0  0  0  0  0
  -15.5121   -0.3670   -2.3437 N   0  0  0  0  0  0  0  0  0  0  0  0
  -16.6674    1.0457   -0.8783 N   0  0  0  0  0  0  0  0  0  0  0  0
  -13.4601   -0.6020    4.0116 C   0  0  0  0  0  0  0  0  0  0  0  0
  -13.6084    0.7513    3.6020 C   0  0  0  0  0  0  0  0  0  0  0  0
  -13.4541    1.7985    4.5525 C   0  0  0  0  0  0  0  0  0  0  0  0
  -13.1528    1.4910    5.9071 C   0  0  0  0  0  0  0  0  0  0  0  0
  -13.0067    0.1386    6.3133 C   0  0  0  0  0  0  0  0  0  0  0  0
  -13.1593   -0.9073    5.3654 C   0  0  0  0  0  0  0  0  0  0  0  0
  2  4  1  0  0  0  0
  3  5  1  0  0  0  0
  4  7  1  0  0  0  0
  6  1  1  0  0  0  0
  7 10  1  0  0  0  0
  8  6  1  0  0  0  0
  8 11  1  0  0  0  0
  9  6  1  0  0  0  0
 10 13  1  0  0  0  0
 11 14  1  0  0  0  0
 12  9  1  0  0  0  0
 14 12  1  0  0  0  0
 14 15  1  0  0  0  0
 15 16  1  0  0  0  0
 15 17  1  0  0  0  0
 18  2  1  0  0  0  0
 18 23  2  0  0  0  0
 19  1  1  0  0  0  0
 19 18  1  0  0  0  0
 20 19  2  0  0  0  0
 21  3  1  0  0  0  0
 21 20  1  0  0  0  0
 22 21  2  0  0  0  0
 22 23  1  0  0  0  0
M  END
>  <CHROM.1>
168.94756788,-162.06510984,-137.30649298,143.77324904,-52.82034758,124.34822586
-12.47717183,-37.57627904,-65.56005468,-97.93109261,-103.42097196,-14.00535505
0.27013670,2.03261539,-0.71914382,-1.10643088,-1.04250610

>  <Name>
1uui_lig

>  <RI>
0

>  <Rbt.Current_Directory>
/home/itssahil/PROJECTS/Mol_Feturizer/New_Systems/rnas/1uui

>  <Rbt.Executable>
rbdock ($Id: //depot/dev/client3/rdock/2013.1/src/exe/rbdock.cxx#4 $)

>  <Rbt.Library>
libRbt.so (2013.1, Build901 2013/11/27)

>  <Rbt.Parameter_File>
/export/apps/rDock/src/rDock_2013.1_src/data/scripts/dock_solv.prm

>  <Rbt.Receptor>
prm/pocket_docking_6.prm

>  <SCORE>
-21.6068

>  <SCORE.INTER>
-17.5777

>  <SCORE.INTER.CONST>
1

>  <SCORE.INTER.POLAR>
-2.37367

>  <SCORE.INTER.ROT>
10

>  <SCORE.INTER.SOLV>
4.747

>  <SCORE.INTER.VDW>
-15.6552

>  <SCORE.INTER.norm>
-0.764247

>  <SCORE.INTRA>
-4.02909

>  <SCORE.INTRA.DIHEDRAL>
-2.31226

>  <SCORE.INTRA.DIHEDRAL.0>
23.4151

>  <SCORE.INTRA.POLAR>
-0.114497

>  <SCORE.INTRA.POLAR.0>
0

>  <SCORE.INTRA.REPUL>
0

>  <SCORE.INTRA.REPUL.0>
0

>  <SCORE.INTRA.SOLV>
2.44361

>  <SCORE.INTRA.SOLV.lig_0>
-17.3568

>  <SCORE.INTRA.VDW>
-3.70548

>  <SCORE.INTRA.VDW.0>
1.0768

>  <SCORE.INTRA.norm>
-0.175178

>  <SCORE.RESTR>
0

>  <SCORE.RESTR.CAVITY>
0

>  <SCORE.RESTR.norm>
0

>  <SCORE.SYSTEM>
0

>  <SCORE.SYSTEM.CONST>
0

>  <SCORE.SYSTEM.DIHEDRAL>
0

>  <SCORE.SYSTEM.SOLV>
0

>  <SCORE.SYSTEM.norm>
0

>  <SCORE.heavy>
23

>  <SCORE.norm>
-0.939424

>  <RMSD>
7.077

$$$$
1uui_lig
 OpenBabel11021811413D
libRbt.so/2013.1/901 2013/11/27
 23 24  0  0  0  0  0  0  0  0999 V2000
   -6.0253    0.3340    0.5278 C   0  0  0  0  0  0  0  0  0  0  0  0
   -8.5755    1.7296    0.5162 O   0  0  0  0  0  0  0  0  0  0  0  0
   -5.6290    1.5225   -4.3602 O   0  0  0  0  0  0  0  0  0  0  0  0
   -9.1197    0.4393    0.8211 C   0  0  0  0  0  0  0  0  0  0  0  0
   -5.9798    0.3397   -5.0827 C   0  0  0  0  0  0  0  0  0  0  0  0
   -4.9402    1.1824    1.1213 N   0  0  0  0  0  0  0  0  0  0  0  0
  -10.1299    0.5796    1.9609 C   0  0  0  0  0  0  0  0  0  0  0  0
   -3.6039    0.7980    0.5910 C   0  0  0  0  0  0  0  0  0  0  0  0
   -4.9343    1.0764    2.6043 C   0  0  0  0  0  0  0  0  0  0  0  0
  -11.4779    1.0558    1.4103 C   0  0  0  0  0  0  0  0  0  0  0  0
   -3.2511   -0.6616    0.9243 C   0  0  0  0  0  0  0  0  0  0  0  0
   -4.7089   -0.3727    3.0685 C   0  0  0  0  0  0  0  0  0  0  0  0
  -11.9729    0.0853    0.4085 N   0  0  0  0  0  0  0  0  0  0  0  0
   -4.1472   -1.2307    1.9792 N   0  0  0  0  0  0  0  0  0  0  0  0
   -4.2576   -2.6290    2.0932 C   0  0  0  0  0  0  0  0  0  0  0  0
   -5.3951   -3.2724    1.7046 N   0  0  0  0  0  0  0  0  0  0  0  0
   -3.2867   -3.3554    2.7171 N   0  0  0  0  0  0  0  0  0  0  0  0
   -7.8363    1.6730   -0.7071 C   0  0  0  0  0  0  0  0  0  0  0  0
   -6.5835    1.0022   -0.7501 C   0  0  0  0  0  0  0  0  0  0  0  0
   -5.8498    0.9524   -1.9679 C   0  0  0  0  0  0  0  0  0  0  0  0
   -6.3691    1.5719   -3.1371 C   0  0  0  0  0  0  0  0  0  0  0  0
   -7.6208    2.2399   -3.0912 C   0  0  0  0  0  0  0  0  0  0  0  0
   -8.3535    2.2912   -1.8762 C   0  0  0  0  0  0  0  0  0  0  0  0
  2  4  1  0  0  0  0
  3  5  1  0  0  0  0
  4  7  1  0  0  0  0
  6  1  1  0  0  0  0
  7 10  1  0  0  0  0
  8  6  1  0  0  0  0
  8 11  1  0  0  0  0
  9  6  1  0  0  0  0
 10 13  1  0  0  0  0
 11 14  1  0  0  0  0
 12  9  1  0  0  0  0
 14 12  1  0  0  0  0
 14 15  1  0  0  0  0
 15 16  1  0  0  0  0
 15 17  1  0  0  0  0
 18  2  1  0  0  0  0
 18 23  2  0  0  0  0
 19  1  1  0  0  0  0
 19 18  1  0  0  0  0
 20 19  2  0  0  0  0
 21  3  1  0  0  0  0
 21 20  1  0  0  0  0
 22 21  2  0  0  0  0
 22 23  1  0  0  0  0
M  END
>  <CHROM.1>
-168.57582555,81.32758400,-91.09027252,58.88947166,41.19996421,-107.91646142
-61.92024010,-95.29451887,-71.73289241,-103.32201335,88.46028425,-6.54249636
0.26417702,0.09978890,-0.71814889,0.25175109,-1.15275823

>  <Name>
1uui_lig

>  <RI>
0

>  <Rbt.Current_Directory>
/home/itssahil/PROJECTS/Mol_Feturizer/New_Systems/rnas/1uui

>  <Rbt.Executable>
rbdock ($Id: //depot/dev/client3/rdock/2013.1/src/exe/rbdock.cxx#4 $)

>  <Rbt.Library>
libRbt.so (2013.1, Build901 2013/11/27)

>  <Rbt.Parameter_File>
/export/apps/rDock/src/rDock_2013.1_src/data/scripts/dock_solv.prm

>  <Rbt.Receptor>
prm/pocket_docking_7.prm

>  <SCORE>
-22.1127

>  <SCORE.INTER>
-16.8589

>  <SCORE.INTER.CONST>
1

>  <SCORE.INTER.POLAR>
-3.10684

>  <SCORE.INTER.ROT>
10

>  <SCORE.INTER.SOLV>
5.44198

>  <SCORE.INTER.VDW>
-12.9638

>  <SCORE.INTER.norm>
-0.732994

>  <SCORE.INTRA>
-5.25388

>  <SCORE.INTRA.DIHEDRAL>
-5.08219

>  <SCORE.INTRA.DIHEDRAL.0>
23.4151

>  <SCORE.INTRA.POLAR>
0

>  <SCORE.INTRA.POLAR.0>
0

>  <SCORE.INTRA.REPUL>
0

>  <SCORE.INTRA.REPUL.0>
0

>  <SCORE.INTRA.SOLV>
0.211018

>  <SCORE.INTRA.SOLV.lig_0>
-17.3568

>  <SCORE.INTRA.VDW>
-2.81829

>  <SCORE.INTRA.VDW.0>
1.0768

>  <SCORE.INTRA.norm>
-0.228429

>  <SCORE.RESTR>
0

>  <SCORE.RESTR.CAVITY>
0

>  <SCORE.RESTR.norm>
0

>  <SCORE.SYSTEM>
0

>  <SCORE.SYSTEM.CONST>
0

>  <SCORE.SYSTEM.DIHEDRAL>
0

>  <SCORE.SYSTEM.SOLV>
0

>  <SCORE.SYSTEM.norm>
0

>  <SCORE.heavy>
23

>  <SCORE.norm>
-0.961423

>  <RMSD>
7.094

$$$$
1uui_lig
 OpenBabel11021811413D
libRbt.so/2013.1/901 2013/11/27
 23 24  0  0  0  0  0  0  0  0999 V2000
  -13.8688    0.7212   -0.0841 C   0  0  0  0  0  0  0  0  0  0  0  0
  -15.6048   -0.3780    1.9725 O   0  0  0  0  0  0  0  0  0  0  0  0
  -13.8572    5.0164    2.5640 O   0  0  0  0  0  0  0  0  0  0  0  0
  -14.6648   -1.2655    2.5913 C   0  0  0  0  0  0  0  0  0  0  0  0
  -12.5783    5.0340    3.2028 C   0  0  0  0  0  0  0  0  0  0  0  0
  -15.0668    0.2073   -0.8258 N   0  0  0  0  0  0  0  0  0  0  0  0
  -14.4788   -2.4957    1.7019 C   0  0  0  0  0  0  0  0  0  0  0  0
  -14.7198   -0.9782   -1.6558 C   0  0  0  0  0  0  0  0  0  0  0  0
  -15.6494    1.2658   -1.6923 C   0  0  0  0  0  0  0  0  0  0  0  0
  -15.6795   -3.4356    1.8503 C   0  0  0  0  0  0  0  0  0  0  0  0
  -13.6566   -0.6463   -2.7165 C   0  0  0  0  0  0  0  0  0  0  0  0
  -14.6328    1.7731   -2.7293 C   0  0  0  0  0  0  0  0  0  0  0  0
  -15.5855   -4.5191    0.8465 N   0  0  0  0  0  0  0  0  0  0  0  0
  -13.4845    0.8291   -2.8988 N   0  0  0  0  0  0  0  0  0  0  0  0
  -12.2953    1.3065   -3.4806 C   0  0  0  0  0  0  0  0  0  0  0  0
  -12.1719    1.4036   -4.8349 N   0  0  0  0  0  0  0  0  0  0  0  0
  -11.1958    1.5546   -2.7131 N   0  0  0  0  0  0  0  0  0  0  0  0
  -15.1682    0.9765    2.1168 C   0  0  0  0  0  0  0  0  0  0  0  0
  -14.3177    1.5574    1.1368 C   0  0  0  0  0  0  0  0  0  0  0  0
  -13.8824    2.9034    1.2869 C   0  0  0  0  0  0  0  0  0  0  0  0
  -14.2974    3.6637    2.4138 C   0  0  0  0  0  0  0  0  0  0  0  0
  -15.1477    3.0813    3.3901 C   0  0  0  0  0  0  0  0  0  0  0  0
  -15.5819    1.7377    3.2419 C   0  0  0  0  0  0  0  0  0  0  0  0
  2  4  1  0  0  0  0
  3  5  1  0  0  0  0
  4  7  1  0  0  0  0
  6  1  1  0  0  0  0
  7 10  1  0  0  0  0
  8  6  1  0  0  0  0
  8 11  1  0  0  0  0
  9  6  1  0  0  0  0
 10 13  1  0  0  0  0
 11 14  1  0  0  0  0
 12  9  1  0  0  0  0
 14 12  1  0  0  0  0
 14 15  1  0  0  0  0
 15 16  1  0  0  0  0
 15 17  1  0  0  0  0
 18  2  1  0  0  0  0
 18 23  2  0  0  0  0
 19  1  1  0  0  0  0
 19 18  1  0  0  0  0
 20 19  2  0  0  0  0
 21  3  1  0  0  0  0
 21 20  1  0  0  0  0
 22 21  2  0  0  0  0
 22 23  1  0  0  0  0
M  END
>  <CHROM.1>
-139.11276897,-76.71990954,-158.47698045,171.85385208,172.40585708,86.58994757
-151.38851752,-7.93388957,89.08561479,56.66787833,-85.28991729,-14.22009390
0.78431205,0.14832694,-1.11728757,1.15989810,0.74272028

>  <Name>
1uui_lig

>  <RI>
0

>  <Rbt.Current_Directory>
/home/itssahil/PROJECTS/Mol_Feturizer/New_Systems/rnas/1uui

>  <Rbt.Executable>
rbdock ($Id: //depot/dev/client3/rdock/2013.1/src/exe/rbdock.cxx#4 $)

>  <Rbt.Library>
libRbt.so (2013.1, Build901 2013/11/27)

>  <Rbt.Parameter_File>
/export/apps/rDock/src/rDock_2013.1_src/data/scripts/dock_solv.prm

>  <Rbt.Receptor>
prm/pocket_docking_6.prm

>  <SCORE>
-21.8538

>  <SCORE.INTER>
-14.6489

>  <SCORE.INTER.CONST>
1

>  <SCORE.INTER.POLAR>
-1.6

>  <SCORE.INTER.ROT>
10

>  <SCORE.INTER.SOLV>
6.70525

>  <SCORE.INTER.VDW>
-16.9344

>  <SCORE.INTER.norm>
-0.636909

>  <SCORE.INTRA>
-7.20485

>  <SCORE.INTRA.DIHEDRAL>
-1.55378

>  <SCORE.INTRA.DIHEDRAL.0>
23.4151

>  <SCORE.INTRA.POLAR>
-0.580955

>  <SCORE.INTRA.POLAR.0>
0

>  <SCORE.INTRA.REPUL>
0

>  <SCORE.INTRA.REPUL.0>
0

>  <SCORE.INTRA.SOLV>
0.305022

>  <SCORE.INTRA.SOLV.lig_0>
-17.3568

>  <SCORE.INTRA.VDW>
-4.60522

>  <SCORE.INTRA.VDW.0>
1.0768

>  <SCORE.INTRA.norm>
-0.313254

>  <SCORE.RESTR>
0

>  <SCORE.RESTR.CAVITY>
0

>  <SCORE.RESTR.norm>
0

>  <SCORE.SYSTEM>
0

>  <SCORE.SYSTEM.CONST>
0

>  <SCORE.SYSTEM.DIHEDRAL>
0

>  <SCORE.SYSTEM.SOLV>
0

>  <SCORE.SYSTEM.norm>
0

>  <SCORE.heavy>
23

>  <SCORE.norm>
-0.950164

>  <RMSD>
7.110

$$$$
1uui_lig
 OpenBabel11021811413D
libRbt.so/2013.1/901 2013/11/27
 23 24  0  0  0  0  0  0  0  0999 V2000
   -5.6958    0.5035    0.7125 C   0  0  0  0  0  0  0  0  0  0  0  0
   -6.9759    1.0788   -1.8334 O   0  0  0  0  0  0  0  0  0  0  0  0
   -9.7005    2.6274    2.9291 O   0  0  0  0  0  0  0  0  0  0  0  0
   -6.4894    2.2373   -2.5228 C   0  0  0  0  0  0  0  0  0  0  0  0
   -9.0802    3.7921    3.4796 C   0  0  0  0  0  0  0  0  0  0  0  0
   -4.7835    1.2559    1.6351 N   0  0  0  0  0  0  0  0  0  0  0  0
   -5.5283    1.7948   -3.6272 C   0  0  0  0  0  0  0  0  0  0  0  0
   -3.3547    0.9706    1.3319 C   0  0  0  0  0  0  0  0  0  0  0  0
   -5.0663    0.9168    3.0548 C   0  0  0  0  0  0  0  0  0  0  0  0
   -6.2646    0.9111   -4.6392 C   0  0  0  0  0  0  0  0  0  0  0  0
   -3.0174   -0.5205    1.5016 C   0  0  0  0  0  0  0  0  0  0  0  0
   -4.8801   -0.5856    3.3271 C   0  0  0  0  0  0  0  0  0  0  0  0
   -6.4933   -0.4278   -4.0513 N   0  0  0  0  0  0  0  0  0  0  0  0
   -4.0811   -1.2562    2.2547 N   0  0  0  0  0  0  0  0  0  0  0  0
   -4.1567   -2.6558    2.1283 C   0  0  0  0  0  0  0  0  0  0  0  0
   -5.3125   -3.2582    1.7281 N   0  0  0  0  0  0  0  0  0  0  0  0
   -3.1223   -3.4479    2.5308 N   0  0  0  0  0  0  0  0  0  0  0  0
   -7.6558    1.4699   -0.6372 C   0  0  0  0  0  0  0  0  0  0  0  0
   -7.0694    1.2090    0.6313 C   0  0  0  0  0  0  0  0  0  0  0  0
   -7.7515    1.5957    1.8184 C   0  0  0  0  0  0  0  0  0  0  0  0
   -9.0152    2.2409    1.7345 C   0  0  0  0  0  0  0  0  0  0  0  0
   -9.5976    2.5012    0.4663 C   0  0  0  0  0  0  0  0  0  0  0  0
   -8.9183    2.1147   -0.7190 C   0  0  0  0  0  0  0  0  0  0  0  0
  2  4  1  0  0  0  0
  3  5  1  0  0  0  0
  4  7  1  0  0  0  0
  6  1  1  0  0  0  0
  7 10  1  0  0  0  0
  8  6  1  0  0  0  0
  8 11  1  0  0  0  0
  9  6  1  0  0  0  0
 10 13  1  0  0  0  0
 11 14  1  0  0  0  0
 12  9  1  0  0  0  0
 14 12  1  0  0  0  0
 14 15  1  0  0  0  0
 15 16  1  0  0  0  0
 15 17  1  0  0  0  0
 18  2  1  0  0  0  0
 18 23  2  0  0  0  0
 19  1  1  0  0  0  0
 19 18  1  0  0  0  0
 20 19  2  0  0  0  0
 21  3  1  0  0  0  0
 21 20  1  0  0  0  0
 22 21  2  0  0  0  0
 22 23  1  0  0  0  0
M  END
>  <CHROM.1>
168.37632697,61.53243750,-156.89918910,-74.53480341,-61.19749589,-124.41247800
128.65747019,-94.26228906,-109.10298171,131.20991669,75.44043023,-6.22182876
0.59805581,0.56000058,-0.56906110,0.73006726,-1.52306501

>  <Name>
1uui_lig

>  <RI>
0

>  <Rbt.Current_Directory>
/home/itssahil/PROJECTS/Mol_Feturizer/New_Systems/rnas/1uui

>  <Rbt.Executable>
rbdock ($Id: //depot/dev/client3/rdock/2013.1/src/exe/rbdock.cxx#4 $)

>  <Rbt.Library>
libRbt.so (2013.1, Build901 2013/11/27)

>  <Rbt.Parameter_File>
/export/apps/rDock/src/rDock_2013.1_src/data/scripts/dock_solv.prm

>  <Rbt.Receptor>
prm/pocket_docking_7.prm

>  <SCORE>
-26.9481

>  <SCORE.INTER>
-18.9907

>  <SCORE.INTER.CONST>
1

>  <SCORE.INTER.POLAR>
-3.20433

>  <SCORE.INTER.ROT>
10

>  <SCORE.INTER.SOLV>
5.85778

>  <SCORE.INTER.VDW>
-14.1986

>  <SCORE.INTER.norm>
-0.825684

>  <SCORE.INTRA>
-7.95732

>  <SCORE.INTRA.DIHEDRAL>
-7.8157

>  <SCORE.INTRA.DIHEDRAL.0>
23.4151

>  <SCORE.INTRA.POLAR>
-0.576615

>  <SCORE.INTRA.POLAR.0>
0

>  <SCORE.INTRA.REPUL>
0

>  <SCORE.INTRA.REPUL.0>
0

>  <SCORE.INTRA.SOLV>
0.441866

>  <SCORE.INTRA.SOLV.lig_0>
-17.3568

>  <SCORE.INTRA.VDW>
-2.30991

>  <SCORE.INTRA.VDW.0>
1.0768

>  <SCORE.INTRA.norm>
-0.34597

>  <SCORE.RESTR>
0

>  <SCORE.RESTR.CAVITY>
0

>  <SCORE.RESTR.norm>
0

>  <SCORE.SYSTEM>
0

>  <SCORE.SYSTEM.CONST>
0

>  <SCORE.SYSTEM.DIHEDRAL>
0

>  <SCORE.SYSTEM.SOLV>
0

>  <SCORE.SYSTEM.norm>
0

>  <SCORE.heavy>
23

>  <SCORE.norm>
-1.17165

>  <RMSD>
7.112

$$$$
1uui_lig
 OpenBabel11021811413D
libRbt.so/2013.1/901 2013/11/27
 23 24  0  0  0  0  0  0  0  0999 V2000
   -6.7561   -1.1595    1.0455 C   0  0  0  0  0  0  0  0  0  0  0  0
   -7.4505   -0.2130   -1.6141 O   0  0  0  0  0  0  0  0  0  0  0  0
  -11.3948    0.2137    2.4804 O   0  0  0  0  0  0  0  0  0  0  0  0
   -7.0998    1.0894   -2.0986 C   0  0  0  0  0  0  0  0  0  0  0  0
  -12.4023   -0.7795    2.2744 C   0  0  0  0  0  0  0  0  0  0  0  0
   -5.9996   -0.2605    1.9776 N   0  0  0  0  0  0  0  0  0  0  0  0
   -6.0496    0.9463   -3.2013 C   0  0  0  0  0  0  0  0  0  0  0  0
   -4.8944    0.4423    1.2709 C   0  0  0  0  0  0  0  0  0  0  0  0
   -5.4457   -1.0288    3.1237 C   0  0  0  0  0  0  0  0  0  0  0  0
   -6.6475    0.2040   -4.4007 C   0  0  0  0  0  0  0  0  0  0  0  0
   -3.8694   -0.5426    0.6834 C   0  0  0  0  0  0  0  0  0  0  0  0
   -4.4877   -2.1368    2.6539 C   0  0  0  0  0  0  0  0  0  0  0  0
   -5.5702   -0.4968   -5.1348 N   0  0  0  0  0  0  0  0  0  0  0  0
   -4.0243   -1.9199    1.2480 N   0  0  0  0  0  0  0  0  0  0  0  0
   -3.4891   -3.0091    0.5355 C   0  0  0  0  0  0  0  0  0  0  0  0
   -4.1303   -3.5089   -0.5591 N   0  0  0  0  0  0  0  0  0  0  0  0
   -2.3923   -3.6732    0.9997 N   0  0  0  0  0  0  0  0  0  0  0  0
   -8.4372   -0.1034   -0.5843 C   0  0  0  0  0  0  0  0  0  0  0  0
   -8.1438   -0.5536    0.7320 C   0  0  0  0  0  0  0  0  0  0  0  0
   -9.1299   -0.4467    1.7518 C   0  0  0  0  0  0  0  0  0  0  0  0
  -10.4039    0.1087    1.4541 C   0  0  0  0  0  0  0  0  0  0  0  0
  -10.6934    0.5585    0.1391 C   0  0  0  0  0  0  0  0  0  0  0  0
   -9.7105    0.4514   -0.8798 C   0  0  0  0  0  0  0  0  0  0  0  0
  2  4  1  0  0  0  0
  3  5  1  0  0  0  0
  4  7  1  0  0  0  0
  6  1  1  0  0  0  0
  7 10  1  0  0  0  0
  8  6  1  0  0  0  0
  8 11  1  0  0  0  0
  9  6  1  0  0  0  0
 10 13  1  0  0  0  0
 11 14  1  0  0  0  0
 12  9  1  0  0  0  0
 14 12  1  0  0  0  0
 14 15  1  0  0  0  0
 15 16  1  0  0  0  0
 15 17  1  0  0  0  0
 18  2  1  0  0  0  0
 18 23  2  0  0  0  0
 19  1  1  0  0  0  0
 19 18  1  0  0  0  0
 20 19  2  0  0  0  0
 21  3  1  0  0  0  0
 21 20  1  0  0  0  0
 22 21  2  0  0  0  0
 22 23  1  0  0  0  0
M  END
>  <CHROM.1>
-179.75426572,64.46216978,-107.31568209,-152.75444163,-97.55418017,-77.47605351
119.01646143,-23.51010507,-117.76008469,113.03303551,-105.89544945,-6.82773705
-0.72435780,0.12494778,-0.06179688,-0.33419618,1.82512286

>  <Name>
1uui_lig

>  <RI>
0

>  <Rbt.Current_Directory>
/home/itssahil/PROJECTS/Mol_Feturizer/New_Systems/rnas/1uui

>  <Rbt.Executable>
rbdock ($Id: //depot/dev/client3/rdock/2013.1/src/exe/rbdock.cxx#4 $)

>  <Rbt.Library>
libRbt.so (2013.1, Build901 2013/11/27)

>  <Rbt.Parameter_File>
/export/apps/rDock/src/rDock_2013.1_src/data/scripts/dock_solv.prm

>  <Rbt.Receptor>
prm/pocket_docking_6.prm

>  <SCORE>
-26.8666

>  <SCORE.INTER>
-23.6217

>  <SCORE.INTER.CONST>
1

>  <SCORE.INTER.POLAR>
-3.48561

>  <SCORE.INTER.ROT>
10

>  <SCORE.INTER.SOLV>
6.61547

>  <SCORE.INTER.VDW>
-16.601

>  <SCORE.INTER.norm>
-1.02703

>  <SCORE.INTRA>
-3.57457

>  <SCORE.INTRA.DIHEDRAL>
-2.75219

>  <SCORE.INTRA.DIHEDRAL.0>
23.4151

>  <SCORE.INTRA.POLAR>
0

>  <SCORE.INTRA.POLAR.0>
0

>  <SCORE.INTRA.REPUL>
0

>  <SCORE.INTRA.REPUL.0>
0

>  <SCORE.INTRA.SOLV>
0.0950834

>  <SCORE.INTRA.SOLV.lig_0>
-17.3568

>  <SCORE.INTRA.VDW>
-2.24602

>  <SCORE.INTRA.VDW.0>
1.0768

>  <SCORE.INTRA.norm>
-0.155416

>  <SCORE.RESTR>
0.329753

>  <SCORE.RESTR.CAVITY>
0.329753

>  <SCORE.RESTR.norm>
0.0143371

>  <SCORE.SYSTEM>
0

>  <SCORE.SYSTEM.CONST>
0

>  <SCORE.SYSTEM.DIHEDRAL>
0

>  <SCORE.SYSTEM.SOLV>
0

>  <SCORE.SYSTEM.norm>
0

>  <SCORE.heavy>
23

>  <SCORE.norm>
-1.16811

>  <RMSD>
7.114

$$$$
1uui_lig
 OpenBabel11021811413D
libRbt.so/2013.1/901 2013/11/27
 23 24  0  0  0  0  0  0  0  0999 V2000
   -5.2622    0.0838    1.1925 C   0  0  0  0  0  0  0  0  0  0  0  0
   -7.1120   -0.8394   -0.8513 O   0  0  0  0  0  0  0  0  0  0  0  0
   -7.2340    4.6845    0.5541 O   0  0  0  0  0  0  0  0  0  0  0  0
   -6.1302   -1.0693   -1.8699 C   0  0  0  0  0  0  0  0  0  0  0  0
   -6.3374    5.4136   -0.2876 C   0  0  0  0  0  0  0  0  0  0  0  0
   -5.8874   -0.4939    2.4274 N   0  0  0  0  0  0  0  0  0  0  0  0
   -6.5936   -0.4083   -3.1689 C   0  0  0  0  0  0  0  0  0  0  0  0
   -4.8520   -0.9782    3.3803 C   0  0  0  0  0  0  0  0  0  0  0  0
   -6.8069   -1.6107    2.0845 C   0  0  0  0  0  0  0  0  0  0  0  0
   -5.5509   -0.6286   -4.2695 C   0  0  0  0  0  0  0  0  0  0  0  0
   -3.9821   -2.0894    2.7683 C   0  0  0  0  0  0  0  0  0  0  0  0
   -6.0720   -2.7458    1.3512 C   0  0  0  0  0  0  0  0  0  0  0  0
   -5.9854    0.0586   -5.5062 N   0  0  0  0  0  0  0  0  0  0  0  0
   -4.5884   -2.6581    1.5239 N   0  0  0  0  0  0  0  0  0  0  0  0
   -3.7592   -3.3464    0.6188 C   0  0  0  0  0  0  0  0  0  0  0  0
   -2.4917   -3.7060    0.9696 N   0  0  0  0  0  0  0  0  0  0  0  0
   -4.1541   -3.5499   -0.6704 N   0  0  0  0  0  0  0  0  0  0  0  0
   -7.1381    0.5469   -0.4998 C   0  0  0  0  0  0  0  0  0  0  0  0
   -6.2527    1.0448    0.4949 C   0  0  0  0  0  0  0  0  0  0  0  0
   -6.2854    2.4234    0.8444 C   0  0  0  0  0  0  0  0  0  0  0  0
   -7.2012    3.2990    0.2001 C   0  0  0  0  0  0  0  0  0  0  0  0
   -8.0832    2.7991   -0.7936 C   0  0  0  0  0  0  0  0  0  0  0  0
   -8.0522    1.4232   -1.1424 C   0  0  0  0  0  0  0  0  0  0  0  0
  2  4  1  0  0  0  0
  3  5  1  0  0  0  0
  4  7  1  0  0  0  0
  6  1  1  0  0  0  0
  7 10  1  0  0  0  0
  8  6  1  0  0  0  0
  8 11  1  0  0  0  0
  9  6  1  0  0  0  0
 10 13  1  0  0  0  0
 11 14  1  0  0  0  0
 12  9  1  0  0  0  0
 14 12  1  0  0  0  0
 14 15  1  0  0  0  0
 15 16  1  0  0  0  0
 15 17  1  0  0  0  0
 18  2  1  0  0  0  0
 18 23  2  0  0  0  0
 19  1  1  0  0  0  0
 19 18  1  0  0  0  0
 20 19  2  0  0  0  0
 21  3  1  0  0  0  0
 21 20  1  0  0  0  0
 22 21  2  0  0  0  0
 22 23  1  0  0  0  0
M  END
>  <CHROM.1>
-68.34794109,179.39812008,-158.12733447,-177.85620264,-175.74265991,11.93398330
-61.55833044,-65.26076731,-86.86144164,-90.74721729,90.71640230,-5.86565707
-0.14436939,-0.07545733,0.07591617,-1.15286632,1.28543224

>  <Name>
1uui_lig

>  <RI>
0

>  <Rbt.Current_Directory>
/home/itssahil/PROJECTS/Mol_Feturizer/New_Systems/rnas/1uui

>  <Rbt.Executable>
rbdock ($Id: //depot/dev/client3/rdock/2013.1/src/exe/rbdock.cxx#4 $)

>  <Rbt.Library>
libRbt.so (2013.1, Build901 2013/11/27)

>  <Rbt.Parameter_File>
/export/apps/rDock/src/rDock_2013.1_src/data/scripts/dock_solv.prm

>  <Rbt.Receptor>
prm/pocket_docking_7.prm

>  <SCORE>
-31.2984

>  <SCORE.INTER>
-24.8146

>  <SCORE.INTER.CONST>
1

>  <SCORE.INTER.POLAR>
-3.65251

>  <SCORE.INTER.ROT>
10

>  <SCORE.INTER.SOLV>
6.32901

>  <SCORE.INTER.VDW>
-16.7444

>  <SCORE.INTER.norm>
-1.0789

>  <SCORE.INTRA>
-6.48372

>  <SCORE.INTRA.DIHEDRAL>
-8.2172

>  <SCORE.INTRA.DIHEDRAL.0>
23.4151

>  <SCORE.INTRA.POLAR>
0

>  <SCORE.INTRA.POLAR.0>
0

>  <SCORE.INTRA.REPUL>
0

>  <SCORE.INTRA.REPUL.0>
0

>  <SCORE.INTRA.SOLV>
0.60566

>  <SCORE.INTRA.SOLV.lig_0>
-17.3568

>  <SCORE.INTRA.VDW>
-2.67795

>  <SCORE.INTRA.VDW.0>
1.0768

>  <SCORE.INTRA.norm>
-0.281901

>  <SCORE.RESTR>
0

>  <SCORE.RESTR.CAVITY>
0

>  <SCORE.RESTR.norm>
0

>  <SCORE.SYSTEM>
0

>  <SCORE.SYSTEM.CONST>
0

>  <SCORE.SYSTEM.DIHEDRAL>
0

>  <SCORE.SYSTEM.SOLV>
0

>  <SCORE.SYSTEM.norm>
0

>  <SCORE.heavy>
23

>  <SCORE.norm>
-1.3608

>  <RMSD>
7.140

$$$$
1uui_lig
 OpenBabel11021811413D
libRbt.so/2013.1/901 2013/11/27
 23 24  0  0  0  0  0  0  0  0999 V2000
   -6.1327    0.5885   -0.9645 C   0  0  0  0  0  0  0  0  0  0  0  0
   -8.3829    2.1538   -1.9330 O   0  0  0  0  0  0  0  0  0  0  0  0
   -6.7138    2.9415    3.4612 O   0  0  0  0  0  0  0  0  0  0  0  0
   -9.7942    1.9083   -1.9748 C   0  0  0  0  0  0  0  0  0  0  0  0
   -5.3203    3.2599    3.4904 C   0  0  0  0  0  0  0  0  0  0  0  0
   -7.1259   -0.3194   -1.6268 N   0  0  0  0  0  0  0  0  0  0  0  0
  -10.2607    1.9208   -3.4313 C   0  0  0  0  0  0  0  0  0  0  0  0
   -8.1920   -0.7375   -0.6764 C   0  0  0  0  0  0  0  0  0  0  0  0
   -6.4558   -1.5250   -2.1819 C   0  0  0  0  0  0  0  0  0  0  0  0
  -11.6895    1.3765   -3.5283 C   0  0  0  0  0  0  0  0  0  0  0  0
   -7.6213   -1.5127    0.5233 C   0  0  0  0  0  0  0  0  0  0  0  0
   -5.7371   -2.3298   -1.0856 C   0  0  0  0  0  0  0  0  0  0  0  0
  -12.3480    1.9295   -4.7329 N   0  0  0  0  0  0  0  0  0  0  0  0
   -6.2146   -1.9641    0.2843 N   0  0  0  0  0  0  0  0  0  0  0  0
   -5.4092   -2.2889    1.3916 C   0  0  0  0  0  0  0  0  0  0  0  0
   -4.5290   -3.3285    1.3325 N   0  0  0  0  0  0  0  0  0  0  0  0
   -5.5855   -1.6603    2.5888 N   0  0  0  0  0  0  0  0  0  0  0  0
   -7.9599    2.3525   -0.5811 C   0  0  0  0  0  0  0  0  0  0  0  0
   -6.8644    1.6093   -0.0625 C   0  0  0  0  0  0  0  0  0  0  0  0
   -6.4502    1.8071    1.2840 C   0  0  0  0  0  0  0  0  0  0  0  0
   -7.1305    2.7453    2.1070 C   0  0  0  0  0  0  0  0  0  0  0  0
   -8.2232    3.4868    1.5859 C   0  0  0  0  0  0  0  0  0  0  0  0
   -8.6382    3.2895    0.2426 C   0  0  0  0  0  0  0  0  0  0  0  0
  2  4  1  0  0  0  0
  3  5  1  0  0  0  0
  4  7  1  0  0  0  0
  6  1  1  0  0  0  0
  7 10  1  0  0  0  0
  8  6  1  0  0  0  0
  8 11  1  0  0  0  0
  9  6  1  0  0  0  0
 10 13  1  0  0  0  0
 11 14  1  0  0  0  0
 12  9  1  0  0  0  0
 14 12  1  0  0  0  0
 14 15  1  0  0  0  0
 15 16  1  0  0  0  0
 15 17  1  0  0  0  0
 18  2  1  0  0  0  0
 18 23  2  0  0  0  0
 19  1  1  0  0  0  0
 19 18  1  0  0  0  0
 20 19  2  0  0  0  0
 21  3  1  0  0  0  0
 21 20  1  0  0  0  0
 22 21  2  0  0  0  0
 22 23  1  0  0  0  0
M  END
>  <CHROM.1>
171.07601587,168.21060916,-41.96805445,154.52854871,-69.04929610,142.48986416
-38.57844831,-67.70026565,128.68976572,-49.82154005,54.49312987,-7.52817706
0.64494545,-0.22343501,-0.08056115,0.83049102,-2.53931420

>  <Name>
1uui_lig

>  <RI>
0

>  <Rbt.Current_Directory>
/home/itssahil/PROJECTS/Mol_Feturizer/New_Systems/rnas/1uui

>  <Rbt.Executable>
rbdock ($Id: //depot/dev/client3/rdock/2013.1/src/exe/rbdock.cxx#4 $)

>  <Rbt.Library>
libRbt.so (2013.1, Build901 2013/11/27)

>  <Rbt.Parameter_File>
/export/apps/rDock/src/rDock_2013.1_src/data/scripts/dock_solv.prm

>  <Rbt.Receptor>
prm/pocket_docking_5.prm

>  <SCORE>
-29.1508

>  <SCORE.INTER>
-24.1401

>  <SCORE.INTER.CONST>
1

>  <SCORE.INTER.POLAR>
-3.5957

>  <SCORE.INTER.ROT>
10

>  <SCORE.INTER.SOLV>
8.29631

>  <SCORE.INTER.VDW>
-17.1398

>  <SCORE.INTER.norm>
-1.04957

>  <SCORE.INTRA>
-5.07906

>  <SCORE.INTRA.DIHEDRAL>
-9.22798

>  <SCORE.INTRA.DIHEDRAL.0>
23.4151

>  <SCORE.INTRA.POLAR>
-0.236384

>  <SCORE.INTRA.POLAR.0>
0

>  <SCORE.INTRA.REPUL>
0

>  <SCORE.INTRA.REPUL.0>
0

>  <SCORE.INTRA.SOLV>
0.612087

>  <SCORE.INTRA.SOLV.lig_0>
-17.3568

>  <SCORE.INTRA.VDW>
0.0325859

>  <SCORE.INTRA.VDW.0>
1.0768

>  <SCORE.INTRA.norm>
-0.220829

>  <SCORE.RESTR>
0.0683187

>  <SCORE.RESTR.CAVITY>
0.0683187

>  <SCORE.RESTR.norm>
0.00297038

>  <SCORE.SYSTEM>
0

>  <SCORE.SYSTEM.CONST>
0

>  <SCORE.SYSTEM.DIHEDRAL>
0

>  <SCORE.SYSTEM.SOLV>
0

>  <SCORE.SYSTEM.norm>
0

>  <SCORE.heavy>
23

>  <SCORE.norm>
-1.26743

>  <RMSD>
7.146

$$$$
1uui_lig
 OpenBabel11021811413D
libRbt.so/2013.1/901 2013/11/27
 23 24  0  0  0  0  0  0  0  0999 V2000
   -6.2709    0.6739    0.3142 C   0  0  0  0  0  0  0  0  0  0  0  0
   -6.8381   -0.3716   -2.3384 O   0  0  0  0  0  0  0  0  0  0  0  0
   -3.0967   -3.2049    0.8985 O   0  0  0  0  0  0  0  0  0  0  0  0
   -6.1578    0.6271   -3.1090 C   0  0  0  0  0  0  0  0  0  0  0  0
   -3.7974   -4.0603    1.8048 C   0  0  0  0  0  0  0  0  0  0  0  0
   -6.6677    0.4898    1.7489 N   0  0  0  0  0  0  0  0  0  0  0  0
   -7.0961    1.1396   -4.2027 C   0  0  0  0  0  0  0  0  0  0  0  0
   -7.4859   -0.7402    1.9287 C   0  0  0  0  0  0  0  0  0  0  0  0
   -7.4273    1.6675    2.2452 C   0  0  0  0  0  0  0  0  0  0  0  0
   -6.3328    2.0638   -5.1568 C   0  0  0  0  0  0  0  0  0  0  0  0
   -8.7909   -0.6867    1.1162 C   0  0  0  0  0  0  0  0  0  0  0  0
   -8.7083    1.9023    1.4267 C   0  0  0  0  0  0  0  0  0  0  0  0
   -7.1880    2.3874   -6.3206 N   0  0  0  0  0  0  0  0  0  0  0  0
   -9.0960    0.6958    0.6314 N   0  0  0  0  0  0  0  0  0  0  0  0
   -9.9763    0.8547   -0.4550 C   0  0  0  0  0  0  0  0  0  0  0  0
  -10.0511    2.0403   -1.1241 N   0  0  0  0  0  0  0  0  0  0  0  0
  -10.8682   -0.1252   -0.7773 N   0  0  0  0  0  0  0  0  0  0  0  0
   -5.9026   -1.0829   -1.5230 C   0  0  0  0  0  0  0  0  0  0  0  0
   -5.5927   -0.6095   -0.2187 C   0  0  0  0  0  0  0  0  0  0  0  0
   -4.6583   -1.3179    0.5869 C   0  0  0  0  0  0  0  0  0  0  0  0
   -4.0374   -2.4950    0.0878 C   0  0  0  0  0  0  0  0  0  0  0  0
   -4.3498   -2.9659   -1.2145 C   0  0  0  0  0  0  0  0  0  0  0  0
   -5.2814   -2.2592   -2.0198 C   0  0  0  0  0  0  0  0  0  0  0  0
  2  4  1  0  0  0  0
  3  5  1  0  0  0  0
  4  7  1  0  0  0  0
  6  1  1  0  0  0  0
  7 10  1  0  0  0  0
  8  6  1  0  0  0  0
  8 11  1  0  0  0  0
  9  6  1  0  0  0  0
 10 13  1  0  0  0  0
 11 14  1  0  0  0  0
 12  9  1  0  0  0  0
 14 12  1  0  0  0  0
 14 15  1  0  0  0  0
 15 16  1  0  0  0  0
 15 17  1  0  0  0  0
 18  2  1  0  0  0  0
 18 23  2  0  0  0  0
 19  1  1  0  0  0  0
 19 18  1  0  0  0  0
 20 19  2  0  0  0  0
 21  3  1  0  0  0  0
 21 20  1  0  0  0  0
 22 21  2  0  0  0  0
 22 23  1  0  0  0  0
M  END
>  <CHROM.1>
166.55201336,-172.23407326,-52.90414413,171.41648674,-54.69286313,-164.92439367
-76.82690048,18.74592411,89.05195358,138.26893661,82.40988767,-6.82565776
-0.18634450,-0.72630211,0.83013116,-0.60580895,1.88682688

>  <Name>
1uui_lig

>  <RI>
0

>  <Rbt.Current_Directory>
/home/itssahil/PROJECTS/Mol_Feturizer/New_Systems/rnas/1uui

>  <Rbt.Executable>
rbdock ($Id: //depot/dev/client3/rdock/2013.1/src/exe/rbdock.cxx#4 $)

>  <Rbt.Library>
libRbt.so (2013.1, Build901 2013/11/27)

>  <Rbt.Parameter_File>
/export/apps/rDock/src/rDock_2013.1_src/data/scripts/dock_solv.prm

>  <Rbt.Receptor>
prm/pocket_docking_8.prm

>  <SCORE>
-27.7673

>  <SCORE.INTER>
-21.6284

>  <SCORE.INTER.CONST>
1

>  <SCORE.INTER.POLAR>
-2.69652

>  <SCORE.INTER.ROT>
10

>  <SCORE.INTER.SOLV>
5.64328

>  <SCORE.INTER.VDW>
-17.5783

>  <SCORE.INTER.norm>
-0.940367

>  <SCORE.INTRA>
-6.13884

>  <SCORE.INTRA.DIHEDRAL>
-7.96596

>  <SCORE.INTRA.DIHEDRAL.0>
23.4151

>  <SCORE.INTRA.POLAR>
0

>  <SCORE.INTRA.POLAR.0>
0

>  <SCORE.INTRA.REPUL>
0.00538289

>  <SCORE.INTRA.REPUL.0>
0

>  <SCORE.INTRA.SOLV>
0.261429

>  <SCORE.INTRA.SOLV.lig_0>
-17.3568

>  <SCORE.INTRA.VDW>
-2.31349

>  <SCORE.INTRA.VDW.0>
1.0768

>  <SCORE.INTRA.norm>
-0.266906

>  <SCORE.RESTR>
0

>  <SCORE.RESTR.CAVITY>
0

>  <SCORE.RESTR.norm>
0

>  <SCORE.SYSTEM>
0

>  <SCORE.SYSTEM.CONST>
0

>  <SCORE.SYSTEM.DIHEDRAL>
0

>  <SCORE.SYSTEM.SOLV>
0

>  <SCORE.SYSTEM.norm>
0

>  <SCORE.heavy>
23

>  <SCORE.norm>
-1.20727

>  <RMSD>
7.167

$$$$
1uui_lig
 OpenBabel11021811413D
libRbt.so/2013.1/901 2013/11/27
 23 24  0  0  0  0  0  0  0  0999 V2000
   -6.3503   -0.9286    0.7611 C   0  0  0  0  0  0  0  0  0  0  0  0
   -6.9949    0.0550   -1.8975 O   0  0  0  0  0  0  0  0  0  0  0  0
  -11.1351    0.0598    2.0220 O   0  0  0  0  0  0  0  0  0  0  0  0
   -6.4901    1.3832   -2.0846 C   0  0  0  0  0  0  0  0  0  0  0  0
  -11.2896    1.3776    2.5547 C   0  0  0  0  0  0  0  0  0  0  0  0
   -5.6467    0.0638    1.6383 N   0  0  0  0  0  0  0  0  0  0  0  0
   -7.2606    2.0551   -3.2221 C   0  0  0  0  0  0  0  0  0  0  0  0
   -4.2933    0.3865    1.1100 C   0  0  0  0  0  0  0  0  0  0  0  0
   -5.5270   -0.4476    3.0292 C   0  0  0  0  0  0  0  0  0  0  0  0
   -7.0226    1.2997   -4.5335 C   0  0  0  0  0  0  0  0  0  0  0  0
   -3.3905   -0.8571    1.0432 C   0  0  0  0  0  0  0  0  0  0  0  0
   -4.7393   -1.7677    3.0824 C   0  0  0  0  0  0  0  0  0  0  0  0
   -7.5681    2.0861   -5.6625 N   0  0  0  0  0  0  0  0  0  0  0  0
   -3.9456   -1.9990    1.8354 N   0  0  0  0  0  0  0  0  0  0  0  0
   -3.5043   -3.3035    1.5454 C   0  0  0  0  0  0  0  0  0  0  0  0
   -2.6499   -3.9534    2.3860 N   0  0  0  0  0  0  0  0  0  0  0  0
   -3.8123   -3.8941    0.3555 N   0  0  0  0  0  0  0  0  0  0  0  0
   -8.0311    0.0588   -0.9114 C   0  0  0  0  0  0  0  0  0  0  0  0
   -7.7635   -0.4134    0.4026 C   0  0  0  0  0  0  0  0  0  0  0  0
   -8.7984   -0.4118    1.3788 C   0  0  0  0  0  0  0  0  0  0  0  0
  -10.0953    0.0607    1.0397 C   0  0  0  0  0  0  0  0  0  0  0  0
  -10.3591    0.5328   -0.2729 C   0  0  0  0  0  0  0  0  0  0  0  0
   -9.3273    0.5307   -1.2482 C   0  0  0  0  0  0  0  0  0  0  0  0
  2  4  1  0  0  0  0
  3  5  1  0  0  0  0
  4  7  1  0  0  0  0
  6  1  1  0  0  0  0
  7 10  1  0  0  0  0
  8  6  1  0  0  0  0
  8 11  1  0  0  0  0
  9  6  1  0  0  0  0
 10 13  1  0  0  0  0
 11 14  1  0  0  0  0
 12  9  1  0  0  0  0
 14 12  1  0  0  0  0
 14 15  1  0  0  0  0
 15 16  1  0  0  0  0
 15 17  1  0  0  0  0
 18  2  1  0  0  0  0
 18 23  2  0  0  0  0
 19  1  1  0  0  0  0
 19 18  1  0  0  0  0
 20 19  2  0  0  0  0
 21  3  1  0  0  0  0
 21 20  1  0  0  0  0
 22 21  2  0  0  0  0
 22 23  1  0  0  0  0
M  END
>  <CHROM.1>
-92.24150692,-63.06769539,-129.09965883,-169.97897962,-36.36994829,106.29154706
-143.42028301,-63.07293198,-103.56524572,106.99668380,100.54463545,-6.73674581
-0.35789592,0.15482287,0.73332991,-0.37734418,1.94136426

>  <Name>
1uui_lig

>  <RI>
0

>  <Rbt.Current_Directory>
/home/itssahil/PROJECTS/Mol_Feturizer/New_Systems/rnas/1uui

>  <Rbt.Executable>
rbdock ($Id: //depot/dev/client3/rdock/2013.1/src/exe/rbdock.cxx#4 $)

>  <Rbt.Library>
libRbt.so (2013.1, Build901 2013/11/27)

>  <Rbt.Parameter_File>
/export/apps/rDock/src/rDock_2013.1_src/data/scripts/dock_solv.prm

>  <Rbt.Receptor>
prm/pocket_docking_6.prm

>  <SCORE>
-30.8052

>  <SCORE.INTER>
-27.5698

>  <SCORE.INTER.CONST>
1

>  <SCORE.INTER.POLAR>
-4.24666

>  <SCORE.INTER.ROT>
10

>  <SCORE.INTER.SOLV>
7.29236

>  <SCORE.INTER.VDW>
-16.9217

>  <SCORE.INTER.norm>
-1.19868

>  <SCORE.INTRA>
-3.23547

>  <SCORE.INTRA.DIHEDRAL>
-0.877595

>  <SCORE.INTRA.DIHEDRAL.0>
23.4151

>  <SCORE.INTRA.POLAR>
0

>  <SCORE.INTRA.POLAR.0>
0

>  <SCORE.INTRA.REPUL>
0

>  <SCORE.INTRA.REPUL.0>
0

>  <SCORE.INTRA.SOLV>
0.0305832

>  <SCORE.INTRA.SOLV.lig_0>
-17.3568

>  <SCORE.INTRA.VDW>
-2.81196

>  <SCORE.INTRA.VDW.0>
1.0768

>  <SCORE.INTRA.norm>
-0.140672

>  <SCORE.RESTR>
0

>  <SCORE.RESTR.CAVITY>
0

>  <SCORE.RESTR.norm>
0

>  <SCORE.SYSTEM>
0

>  <SCORE.SYSTEM.CONST>
0

>  <SCORE.SYSTEM.DIHEDRAL>
0

>  <SCORE.SYSTEM.SOLV>
0

>  <SCORE.SYSTEM.norm>
0

>  <SCORE.heavy>
23

>  <SCORE.norm>
-1.33936

>  <RMSD>
7.173

$$$$
1uui_lig
 OpenBabel11021811413D
libRbt.so/2013.1/901 2013/11/27
 23 24  0  0  0  0  0  0  0  0999 V2000
   -5.7599    0.6856    1.6958 C   0  0  0  0  0  0  0  0  0  0  0  0
   -6.7467    1.9958   -0.7045 O   0  0  0  0  0  0  0  0  0  0  0  0
   -8.5999    3.9165    4.3334 O   0  0  0  0  0  0  0  0  0  0  0  0
   -7.6344    0.9840   -1.1967 C   0  0  0  0  0  0  0  0  0  0  0  0
   -7.7460    4.9688    4.7892 C   0  0  0  0  0  0  0  0  0  0  0  0
   -6.2153   -0.4213    2.5995 N   0  0  0  0  0  0  0  0  0  0  0  0
   -7.4511    0.8512   -2.7093 C   0  0  0  0  0  0  0  0  0  0  0  0
   -5.1141   -1.3853    2.8691 C   0  0  0  0  0  0  0  0  0  0  0  0
   -7.3741   -1.1440    2.0119 C   0  0  0  0  0  0  0  0  0  0  0  0
   -8.1583    2.0059   -3.4259 C   0  0  0  0  0  0  0  0  0  0  0  0
   -4.6058   -2.0529    1.5800 C   0  0  0  0  0  0  0  0  0  0  0  0
   -7.0247   -1.7614    0.6470 C   0  0  0  0  0  0  0  0  0  0  0  0
   -7.8547    1.9489   -4.8733 N   0  0  0  0  0  0  0  0  0  0  0  0
   -5.5467   -1.8528    0.4336 N   0  0  0  0  0  0  0  0  0  0  0  0
   -5.0597   -2.0052   -0.8780 C   0  0  0  0  0  0  0  0  0  0  0  0
   -5.6276   -2.9031   -1.7325 N   0  0  0  0  0  0  0  0  0  0  0  0
   -3.9285   -1.3585   -1.2799 N   0  0  0  0  0  0  0  0  0  0  0  0
   -7.2073    2.4785    0.5609 C   0  0  0  0  0  0  0  0  0  0  0  0
   -6.7530    1.8690    1.7622 C   0  0  0  0  0  0  0  0  0  0  0  0
   -7.2174    2.3496    3.0181 C   0  0  0  0  0  0  0  0  0  0  0  0
   -8.1327    3.4358    3.0698 C   0  0  0  0  0  0  0  0  0  0  0  0
   -8.5834    4.0432    1.8685 C   0  0  0  0  0  0  0  0  0  0  0  0
   -8.1216    3.5637    0.6145 C   0  0  0  0  0  0  0  0  0  0  0  0
  2  4  1  0  0  0  0
  3  5  1  0  0  0  0
  4  7  1  0  0  0  0
  6  1  1  0  0  0  0
  7 10  1  0  0  0  0
  8  6  1  0  0  0  0
  8 11  1  0  0  0  0
  9  6  1  0  0  0  0
 10 13  1  0  0  0  0
 11 14  1  0  0  0  0
 12  9  1  0  0  0  0
 14 12  1  0  0  0  0
 14 15  1  0  0  0  0
 15 16  1  0  0  0  0
 15 17  1  0  0  0  0
 18  2  1  0  0  0  0
 18 23  2  0  0  0  0
 19  1  1  0  0  0  0
 19 18  1  0  0  0  0
 20 19  2  0  0  0  0
 21  3  1  0  0  0  0
 21 20  1  0  0  0  0
 22 21  2  0  0  0  0
 22 23  1  0  0  0  0
M  END
>  <CHROM.1>
159.33112076,-77.16914146,-163.37053082,174.01086840,61.25372504,122.76554396
-59.26083530,146.13780009,91.00155217,-133.18946817,91.59931456,-6.78244700
0.84072551,0.57916122,-2.23403195,1.07472680,-1.75847837

>  <Name>
1uui_lig

>  <RI>
0

>  <Rbt.Current_Directory>
/home/itssahil/PROJECTS/Mol_Feturizer/New_Systems/rnas/1uui

>  <Rbt.Executable>
rbdock ($Id: //depot/dev/client3/rdock/2013.1/src/exe/rbdock.cxx#4 $)

>  <Rbt.Library>
libRbt.so (2013.1, Build901 2013/11/27)

>  <Rbt.Parameter_File>
/export/apps/rDock/src/rDock_2013.1_src/data/scripts/dock_solv.prm

>  <Rbt.Receptor>
prm/pocket_docking_8.prm

>  <SCORE>
-29.0701

>  <SCORE.INTER>
-22.4496

>  <SCORE.INTER.CONST>
1

>  <SCORE.INTER.POLAR>
-2.7898

>  <SCORE.INTER.ROT>
10

>  <SCORE.INTER.SOLV>
5.54298

>  <SCORE.INTER.VDW>
-17.7814

>  <SCORE.INTER.norm>
-0.976071

>  <SCORE.INTRA>
-6.62049

>  <SCORE.INTRA.DIHEDRAL>
-5.88422

>  <SCORE.INTRA.DIHEDRAL.0>
23.4151

>  <SCORE.INTRA.POLAR>
0

>  <SCORE.INTRA.POLAR.0>
0

>  <SCORE.INTRA.REPUL>
0

>  <SCORE.INTRA.REPUL.0>
0

>  <SCORE.INTRA.SOLV>
0.470254

>  <SCORE.INTRA.SOLV.lig_0>
-17.3568

>  <SCORE.INTRA.VDW>
-3.91351

>  <SCORE.INTRA.VDW.0>
1.0768

>  <SCORE.INTRA.norm>
-0.287847

>  <SCORE.RESTR>
0

>  <SCORE.RESTR.CAVITY>
0

>  <SCORE.RESTR.norm>
0

>  <SCORE.SYSTEM>
0

>  <SCORE.SYSTEM.CONST>
0

>  <SCORE.SYSTEM.DIHEDRAL>
0

>  <SCORE.SYSTEM.SOLV>
0

>  <SCORE.SYSTEM.norm>
0

>  <SCORE.heavy>
23

>  <SCORE.norm>
-1.26392

>  <RMSD>
7.181

$$$$
1uui_lig
 OpenBabel11021811413D
libRbt.so/2013.1/901 2013/11/27
 23 24  0  0  0  0  0  0  0  0999 V2000
   -5.4735   -1.5912   -0.6916 C   0  0  0  0  0  0  0  0  0  0  0  0
   -3.4868   -3.1649   -2.1154 O   0  0  0  0  0  0  0  0  0  0  0  0
   -5.7484    1.3290   -4.7975 O   0  0  0  0  0  0  0  0  0  0  0  0
   -2.1203   -2.8999   -1.7742 C   0  0  0  0  0  0  0  0  0  0  0  0
   -5.3473    2.5327   -4.1386 C   0  0  0  0  0  0  0  0  0  0  0  0
   -6.8429   -1.0408   -0.4245 N   0  0  0  0  0  0  0  0  0  0  0  0
   -1.5720   -4.0726   -0.9597 C   0  0  0  0  0  0  0  0  0  0  0  0
   -6.7755    0.3713    0.0405 C   0  0  0  0  0  0  0  0  0  0  0  0
   -7.5575   -1.8624    0.5878 C   0  0  0  0  0  0  0  0  0  0  0  0
   -1.6158   -5.3561   -1.7949 C   0  0  0  0  0  0  0  0  0  0  0  0
   -5.9846    0.5076    1.3526 C   0  0  0  0  0  0  0  0  0  0  0  0
   -6.7962   -1.9052    1.9237 C   0  0  0  0  0  0  0  0  0  0  0  0
   -2.7560   -6.1918   -1.3567 N   0  0  0  0  0  0  0  0  0  0  0  0
   -5.7787   -0.8130    2.0257 N   0  0  0  0  0  0  0  0  0  0  0  0
   -4.7413   -0.9395    2.9682 C   0  0  0  0  0  0  0  0  0  0  0  0
   -3.9939   -2.0779    3.0337 N   0  0  0  0  0  0  0  0  0  0  0  0
   -4.5479    0.0150    3.9227 N   0  0  0  0  0  0  0  0  0  0  0  0
   -4.0528   -2.0346   -2.7849 C   0  0  0  0  0  0  0  0  0  0  0  0
   -5.0286   -1.2354   -2.1291 C   0  0  0  0  0  0  0  0  0  0  0  0
   -5.5920   -0.1149   -2.8007 C   0  0  0  0  0  0  0  0  0  0  0  0
   -5.1795    0.2031   -4.1232 C   0  0  0  0  0  0  0  0  0  0  0  0
   -4.2039   -0.5962   -4.7749 C   0  0  0  0  0  0  0  0  0  0  0  0
   -3.6417   -1.7153   -4.1061 C   0  0  0  0  0  0  0  0  0  0  0  0
  2  4  1  0  0  0  0
  3  5  1  0  0  0  0
  4  7  1  0  0  0  0
  6  1  1  0  0  0  0
  7 10  1  0  0  0  0
  8  6  1  0  0  0  0
  8 11  1  0  0  0  0
  9  6  1  0  0  0  0
 10 13  1  0  0  0  0
 11 14  1  0  0  0  0
 12  9  1  0  0  0  0
 14 12  1  0  0  0  0
 14 15  1  0  0  0  0
 15 16  1  0  0  0  0
 15 17  1  0  0  0  0
 18  2  1  0  0  0  0
 18 23  2  0  0  0  0
 19  1  1  0  0  0  0
 19 18  1  0  0  0  0
 20 19  2  0  0  0  0
 21  3  1  0  0  0  0
 21 20  1  0  0  0  0
 22 21  2  0  0  0  0
 22 23  1  0  0  0  0
M  END
>  <CHROM.1>
175.36188500,61.50833811,-85.70379686,-103.07086950,166.75055229,-141.27468098
3.25032657,170.63442662,-109.33400731,-155.97753308,66.49637144,-4.71898442
-1.45642566,-0.93024145,1.86063149,-0.93445286,1.84674453

>  <Name>
1uui_lig

>  <RI>
0

>  <Rbt.Current_Directory>
/home/itssahil/PROJECTS/Mol_Feturizer/New_Systems/rnas/1uui

>  <Rbt.Executable>
rbdock ($Id: //depot/dev/client3/rdock/2013.1/src/exe/rbdock.cxx#4 $)

>  <Rbt.Library>
libRbt.so (2013.1, Build901 2013/11/27)

>  <Rbt.Parameter_File>
/export/apps/rDock/src/rDock_2013.1_src/data/scripts/dock_solv.prm

>  <Rbt.Receptor>
prm/pocket_docking_8.prm

>  <SCORE>
-27.6701

>  <SCORE.INTER>
-24.345

>  <SCORE.INTER.CONST>
1

>  <SCORE.INTER.POLAR>
-2.93604

>  <SCORE.INTER.ROT>
10

>  <SCORE.INTER.SOLV>
8.3324

>  <SCORE.INTER.VDW>
-19.4874

>  <SCORE.INTER.norm>
-1.05848

>  <SCORE.INTRA>
-3.32503

>  <SCORE.INTRA.DIHEDRAL>
-4.18246

>  <SCORE.INTRA.DIHEDRAL.0>
23.4151

>  <SCORE.INTRA.POLAR>
0

>  <SCORE.INTRA.POLAR.0>
0

>  <SCORE.INTRA.REPUL>
0

>  <SCORE.INTRA.REPUL.0>
0

>  <SCORE.INTRA.SOLV>
0.263388

>  <SCORE.INTRA.SOLV.lig_0>
-17.3568

>  <SCORE.INTRA.VDW>
-1.3655

>  <SCORE.INTRA.VDW.0>
1.0768

>  <SCORE.INTRA.norm>
-0.144567

>  <SCORE.RESTR>
0

>  <SCORE.RESTR.CAVITY>
0

>  <SCORE.RESTR.norm>
0

>  <SCORE.SYSTEM>
0

>  <SCORE.SYSTEM.CONST>
0

>  <SCORE.SYSTEM.DIHEDRAL>
0

>  <SCORE.SYSTEM.SOLV>
0

>  <SCORE.SYSTEM.norm>
0

>  <SCORE.heavy>
23

>  <SCORE.norm>
-1.20305

>  <RMSD>
7.186

$$$$
1uui_lig
 OpenBabel11021811413D
libRbt.so/2013.1/901 2013/11/27
 23 24  0  0  0  0  0  0  0  0999 V2000
   -7.0726   -0.7687   -0.0671 C   0  0  0  0  0  0  0  0  0  0  0  0
   -8.5866    1.4010   -1.2719 O   0  0  0  0  0  0  0  0  0  0  0  0
   -4.9782   -1.4991   -4.5994 O   0  0  0  0  0  0  0  0  0  0  0  0
   -8.7527    2.7319   -1.7771 C   0  0  0  0  0  0  0  0  0  0  0  0
   -3.6437   -1.3280   -4.1159 C   0  0  0  0  0  0  0  0  0  0  0  0
   -6.9241    0.4570    0.7845 N   0  0  0  0  0  0  0  0  0  0  0  0
   -9.6399    3.5243   -0.8158 C   0  0  0  0  0  0  0  0  0  0  0  0
   -5.5359    0.9901    0.7254 C   0  0  0  0  0  0  0  0  0  0  0  0
   -7.2848    0.1688    2.1977 C   0  0  0  0  0  0  0  0  0  0  0  0
   -9.8247    4.9547   -1.3323 C   0  0  0  0  0  0  0  0  0  0  0  0
   -4.5060   -0.0294    1.2409 C   0  0  0  0  0  0  0  0  0  0  0  0
   -6.3950   -0.9338    2.7967 C   0  0  0  0  0  0  0  0  0  0  0  0
  -10.5419    5.7578   -0.3168 N   0  0  0  0  0  0  0  0  0  0  0  0
   -5.1515   -1.1504    1.9935 N   0  0  0  0  0  0  0  0  0  0  0  0
   -4.4442   -2.3567    2.1520 C   0  0  0  0  0  0  0  0  0  0  0  0
   -3.6499   -2.5611    3.2411 N   0  0  0  0  0  0  0  0  0  0  0  0
   -4.4302   -3.2911    1.1588 N   0  0  0  0  0  0  0  0  0  0  0  0
   -7.6834    0.6695   -2.1057 C   0  0  0  0  0  0  0  0  0  0  0  0
   -6.9209   -0.3997   -1.5611 C   0  0  0  0  0  0  0  0  0  0  0  0
   -6.0206   -1.1215   -2.3932 C   0  0  0  0  0  0  0  0  0  0  0  0
   -5.8852   -0.7735   -3.7647 C   0  0  0  0  0  0  0  0  0  0  0  0
   -6.6490    0.2938   -4.3059 C   0  0  0  0  0  0  0  0  0  0  0  0
   -7.5470    1.0155   -3.4761 C   0  0  0  0  0  0  0  0  0  0  0  0
  2  4  1  0  0  0  0
  3  5  1  0  0  0  0
  4  7  1  0  0  0  0
  6  1  1  0  0  0  0
  7 10  1  0  0  0  0
  8  6  1  0  0  0  0
  8 11  1  0  0  0  0
  9  6  1  0  0  0  0
 10 13  1  0  0  0  0
 11 14  1  0  0  0  0
 12  9  1  0  0  0  0
 14 12  1  0  0  0  0
 14 15  1  0  0  0  0
 15 16  1  0  0  0  0
 15 17  1  0  0  0  0
 18  2  1  0  0  0  0
 18 23  2  0  0  0  0
 19  1  1  0  0  0  0
 19 18  1  0  0  0  0
 20 19  2  0  0  0  0
 21  3  1  0  0  0  0
 21 20  1  0  0  0  0
 22 21  2  0  0  0  0
 22 23  1  0  0  0  0
M  END
>  <CHROM.1>
-175.93415279,179.67012940,-67.13955908,-173.06371679,176.58197475,91.24036291
161.47772891,107.47526139,152.88841871,-50.81802667,-62.68632553,-6.61346770
0.27311147,-0.62270849,0.34147660,-0.86614664,1.57949429

>  <Name>
1uui_lig

>  <RI>
0

>  <Rbt.Current_Directory>
/home/itssahil/PROJECTS/Mol_Feturizer/New_Systems/rnas/1uui

>  <Rbt.Executable>
rbdock ($Id: //depot/dev/client3/rdock/2013.1/src/exe/rbdock.cxx#4 $)

>  <Rbt.Library>
libRbt.so (2013.1, Build901 2013/11/27)

>  <Rbt.Parameter_File>
/export/apps/rDock/src/rDock_2013.1_src/data/scripts/dock_solv.prm

>  <Rbt.Receptor>
prm/pocket_docking_7.prm

>  <SCORE>
-23.8614

>  <SCORE.INTER>
-14.6441

>  <SCORE.INTER.CONST>
1

>  <SCORE.INTER.POLAR>
-2.41978

>  <SCORE.INTER.ROT>
10

>  <SCORE.INTER.SOLV>
6.90037

>  <SCORE.INTER.VDW>
-14.2636

>  <SCORE.INTER.norm>
-0.636699

>  <SCORE.INTRA>
-9.25176

>  <SCORE.INTRA.DIHEDRAL>
-13.7677

>  <SCORE.INTRA.DIHEDRAL.0>
23.4151

>  <SCORE.INTRA.POLAR>
-0.668756

>  <SCORE.INTRA.POLAR.0>
0

>  <SCORE.INTRA.REPUL>
0

>  <SCORE.INTRA.REPUL.0>
0

>  <SCORE.INTRA.SOLV>
0.261443

>  <SCORE.INTRA.SOLV.lig_0>
-17.3568

>  <SCORE.INTRA.VDW>
-0.224881

>  <SCORE.INTRA.VDW.0>
1.0768

>  <SCORE.INTRA.norm>
-0.40225

>  <SCORE.RESTR>
0.0343951

>  <SCORE.RESTR.CAVITY>
0.0343951

>  <SCORE.RESTR.norm>
0.00149544

>  <SCORE.SYSTEM>
0

>  <SCORE.SYSTEM.CONST>
0

>  <SCORE.SYSTEM.DIHEDRAL>
0

>  <SCORE.SYSTEM.SOLV>
0

>  <SCORE.SYSTEM.norm>
0

>  <SCORE.heavy>
23

>  <SCORE.norm>
-1.03745

>  <RMSD>
7.204

$$$$
1uui_lig
 OpenBabel11021811413D
libRbt.so/2013.1/901 2013/11/27
 23 24  0  0  0  0  0  0  0  0999 V2000
   -8.5682   -0.7801   -0.7260 C   0  0  0  0  0  0  0  0  0  0  0  0
   -6.8581   -1.2103   -3.0373 O   0  0  0  0  0  0  0  0  0  0  0  0
   -4.9898   -3.0244    2.0344 O   0  0  0  0  0  0  0  0  0  0  0  0
   -6.4233    0.1365   -3.2635 C   0  0  0  0  0  0  0  0  0  0  0  0
   -3.9937   -2.1230    2.5237 C   0  0  0  0  0  0  0  0  0  0  0  0
   -8.8852   -0.0434    0.5414 N   0  0  0  0  0  0  0  0  0  0  0  0
   -7.1873    0.7147   -4.4557 C   0  0  0  0  0  0  0  0  0  0  0  0
  -10.3027    0.4092    0.5622 C   0  0  0  0  0  0  0  0  0  0  0  0
   -7.9877    1.1294    0.7127 C   0  0  0  0  0  0  0  0  0  0  0  0
   -6.3970    1.8735   -5.0719 C   0  0  0  0  0  0  0  0  0  0  0  0
  -10.6157    1.3729   -0.5951 C   0  0  0  0  0  0  0  0  0  0  0  0
   -8.1201    2.1206   -0.4562 C   0  0  0  0  0  0  0  0  0  0  0  0
   -7.1357    2.4111   -6.2363 N   0  0  0  0  0  0  0  0  0  0  0  0
   -9.3728    1.8971   -1.2431 N   0  0  0  0  0  0  0  0  0  0  0  0
   -9.4568    2.4217   -2.5462 C   0  0  0  0  0  0  0  0  0  0  0  0
   -9.0210    3.6845   -2.8188 N   0  0  0  0  0  0  0  0  0  0  0  0
  -10.0967    1.7329   -3.5340 N   0  0  0  0  0  0  0  0  0  0  0  0
   -6.3931   -1.6680   -1.7643 C   0  0  0  0  0  0  0  0  0  0  0  0
   -7.1943   -1.4794   -0.6052 C   0  0  0  0  0  0  0  0  0  0  0  0
   -6.7257   -1.9323    0.6594 C   0  0  0  0  0  0  0  0  0  0  0  0
   -5.4602   -2.5713    0.7618 C   0  0  0  0  0  0  0  0  0  0  0  0
   -4.6630   -2.7594   -0.3977 C   0  0  0  0  0  0  0  0  0  0  0  0
   -5.1292   -2.3068   -1.6601 C   0  0  0  0  0  0  0  0  0  0  0  0
  2  4  1  0  0  0  0
  3  5  1  0  0  0  0
  4  7  1  0  0  0  0
  6  1  1  0  0  0  0
  7 10  1  0  0  0  0
  8  6  1  0  0  0  0
  8 11  1  0  0  0  0
  9  6  1  0  0  0  0
 10 13  1  0  0  0  0
 11 14  1  0  0  0  0
 12  9  1  0  0  0  0
 14 12  1  0  0  0  0
 14 15  1  0  0  0  0
 15 16  1  0  0  0  0
 15 17  1  0  0  0  0
 18  2  1  0  0  0  0
 18 23  2  0  0  0  0
 19  1  1  0  0  0  0
 19 18  1  0  0  0  0
 20 19  2  0  0  0  0
 21  3  1  0  0  0  0
 21 20  1  0  0  0  0
 22 21  2  0  0  0  0
 22 23  1  0  0  0  0
M  END
>  <CHROM.1>
-166.97373356,-157.24894959,-168.66921416,179.14456391,-45.33536574,124.83370273
-65.80168813,14.85856130,90.25721941,-149.54297316,-103.80255020,-7.46588026
0.07330164,-1.39322906,0.98955268,-0.64012644,1.97326741

>  <Name>
1uui_lig

>  <RI>
0

>  <Rbt.Current_Directory>
/home/itssahil/PROJECTS/Mol_Feturizer/New_Systems/rnas/1uui

>  <Rbt.Executable>
rbdock ($Id: //depot/dev/client3/rdock/2013.1/src/exe/rbdock.cxx#4 $)

>  <Rbt.Library>
libRbt.so (2013.1, Build901 2013/11/27)

>  <Rbt.Parameter_File>
/export/apps/rDock/src/rDock_2013.1_src/data/scripts/dock_solv.prm

>  <Rbt.Receptor>
prm/pocket_docking_7.prm

>  <SCORE>
-31.3513

>  <SCORE.INTER>
-24.7417

>  <SCORE.INTER.CONST>
1

>  <SCORE.INTER.POLAR>
-2.89126

>  <SCORE.INTER.ROT>
10

>  <SCORE.INTER.SOLV>
6.73987

>  <SCORE.INTER.VDW>
-19.3702

>  <SCORE.INTER.norm>
-1.07573

>  <SCORE.INTRA>
-6.60957

>  <SCORE.INTRA.DIHEDRAL>
-6.51646

>  <SCORE.INTRA.DIHEDRAL.0>
23.4151

>  <SCORE.INTRA.POLAR>
0

>  <SCORE.INTRA.POLAR.0>
0

>  <SCORE.INTRA.REPUL>
0.00317313

>  <SCORE.INTRA.REPUL.0>
0

>  <SCORE.INTRA.SOLV>
1.30904

>  <SCORE.INTRA.SOLV.lig_0>
-17.3568

>  <SCORE.INTRA.VDW>
-4.02173

>  <SCORE.INTRA.VDW.0>
1.0768

>  <SCORE.INTRA.norm>
-0.287373

>  <SCORE.RESTR>
0

>  <SCORE.RESTR.CAVITY>
0

>  <SCORE.RESTR.norm>
0

>  <SCORE.SYSTEM>
0

>  <SCORE.SYSTEM.CONST>
0

>  <SCORE.SYSTEM.DIHEDRAL>
0

>  <SCORE.SYSTEM.SOLV>
0

>  <SCORE.SYSTEM.norm>
0

>  <SCORE.heavy>
23

>  <SCORE.norm>
-1.3631

>  <RMSD>
7.217

$$$$
1uui_lig
 OpenBabel11021811413D
libRbt.so/2013.1/901 2013/11/27
 23 24  0  0  0  0  0  0  0  0999 V2000
   -5.3730    0.1647    1.6005 C   0  0  0  0  0  0  0  0  0  0  0  0
   -6.1043    0.6177   -1.1764 O   0  0  0  0  0  0  0  0  0  0  0  0
   -9.3240    3.0411    2.8566 O   0  0  0  0  0  0  0  0  0  0  0  0
   -6.9202   -0.2011   -2.0237 C   0  0  0  0  0  0  0  0  0  0  0  0
  -10.6409    2.4864    2.8099 C   0  0  0  0  0  0  0  0  0  0  0  0
   -5.8105   -0.9692    2.4793 N   0  0  0  0  0  0  0  0  0  0  0  0
   -6.7731    0.2741   -3.4700 C   0  0  0  0  0  0  0  0  0  0  0  0
   -4.6680   -1.8601    2.8194 C   0  0  0  0  0  0  0  0  0  0  0  0
   -6.8823   -1.7653    1.8250 C   0  0  0  0  0  0  0  0  0  0  0  0
   -7.5007    1.6090   -3.6592 C   0  0  0  0  0  0  0  0  0  0  0  0
   -4.0400   -2.4937    1.5664 C   0  0  0  0  0  0  0  0  0  0  0  0
   -6.4111   -2.3591    0.4865 C   0  0  0  0  0  0  0  0  0  0  0  0
   -7.6326    1.8991   -5.1045 N   0  0  0  0  0  0  0  0  0  0  0  0
   -4.9200   -2.3549    0.3639 N   0  0  0  0  0  0  0  0  0  0  0  0
   -4.3451   -2.4756   -0.9149 C   0  0  0  0  0  0  0  0  0  0  0  0
   -4.1371   -3.7022   -1.4727 N   0  0  0  0  0  0  0  0  0  0  0  0
   -3.8609   -1.3800   -1.5667 N   0  0  0  0  0  0  0  0  0  0  0  0
   -6.9084    1.2279   -0.1629 C   0  0  0  0  0  0  0  0  0  0  0  0
   -6.5902    1.0343    1.2092 C   0  0  0  0  0  0  0  0  0  0  0  0
   -7.3955    1.6395    2.2137 C   0  0  0  0  0  0  0  0  0  0  0  0
   -8.5143    2.4349    1.8451 C   0  0  0  0  0  0  0  0  0  0  0  0
   -8.8287    2.6273    0.4742 C   0  0  0  0  0  0  0  0  0  0  0  0
   -8.0265    2.0229   -0.5293 C   0  0  0  0  0  0  0  0  0  0  0  0
  2  4  1  0  0  0  0
  3  5  1  0  0  0  0
  4  7  1  0  0  0  0
  6  1  1  0  0  0  0
  7 10  1  0  0  0  0
  8  6  1  0  0  0  0
  8 11  1  0  0  0  0
  9  6  1  0  0  0  0
 10 13  1  0  0  0  0
 11 14  1  0  0  0  0
 12  9  1  0  0  0  0
 14 12  1  0  0  0  0
 14 15  1  0  0  0  0
 15 16  1  0  0  0  0
 15 17  1  0  0  0  0
 18  2  1  0  0  0  0
 18 23  2  0  0  0  0
 19  1  1  0  0  0  0
 19 18  1  0  0  0  0
 20 19  2  0  0  0  0
 21  3  1  0  0  0  0
 21 20  1  0  0  0  0
 22 21  2  0  0  0  0
 22 23  1  0  0  0  0
M  END
>  <CHROM.1>
122.69258805,-72.56078668,177.33515057,-166.58509404,-67.21645225,83.07058475
41.08202218,-35.57505273,123.48624181,-122.03311902,-115.35523707,-6.57251816
0.03948173,0.04223938,-0.14040717,-0.85172996,1.70204622

>  <Name>
1uui_lig

>  <RI>
0

>  <Rbt.Current_Directory>
/home/itssahil/PROJECTS/Mol_Feturizer/New_Systems/rnas/1uui

>  <Rbt.Executable>
rbdock ($Id: //depot/dev/client3/rdock/2013.1/src/exe/rbdock.cxx#4 $)

>  <Rbt.Library>
libRbt.so (2013.1, Build901 2013/11/27)

>  <Rbt.Parameter_File>
/export/apps/rDock/src/rDock_2013.1_src/data/scripts/dock_solv.prm

>  <Rbt.Receptor>
prm/pocket_docking_6.prm

>  <SCORE>
-31.0638

>  <SCORE.INTER>
-23.6994

>  <SCORE.INTER.CONST>
1

>  <SCORE.INTER.POLAR>
-3.43907

>  <SCORE.INTER.ROT>
10

>  <SCORE.INTER.SOLV>
4.94965

>  <SCORE.INTER.VDW>
-16.2526

>  <SCORE.INTER.norm>
-1.03041

>  <SCORE.INTRA>
-7.36443

>  <SCORE.INTRA.DIHEDRAL>
-3.18873

>  <SCORE.INTRA.DIHEDRAL.0>
23.4151

>  <SCORE.INTRA.POLAR>
-1

>  <SCORE.INTRA.POLAR.0>
0

>  <SCORE.INTRA.REPUL>
0

>  <SCORE.INTRA.REPUL.0>
0

>  <SCORE.INTRA.SOLV>
1.26411

>  <SCORE.INTRA.SOLV.lig_0>
-17.3568

>  <SCORE.INTRA.VDW>
-3.00212

>  <SCORE.INTRA.VDW.0>
1.0768

>  <SCORE.INTRA.norm>
-0.320192

>  <SCORE.RESTR>
0

>  <SCORE.RESTR.CAVITY>
0

>  <SCORE.RESTR.norm>
0

>  <SCORE.SYSTEM>
0

>  <SCORE.SYSTEM.CONST>
0

>  <SCORE.SYSTEM.DIHEDRAL>
0

>  <SCORE.SYSTEM.SOLV>
0

>  <SCORE.SYSTEM.norm>
0

>  <SCORE.heavy>
23

>  <SCORE.norm>
-1.3506

>  <RMSD>
7.218

$$$$
1uui_lig
 OpenBabel11021811413D
libRbt.so/2013.1/901 2013/11/27
 23 24  0  0  0  0  0  0  0  0999 V2000
   -5.4850   -0.0067    0.0714 C   0  0  0  0  0  0  0  0  0  0  0  0
   -7.1255    1.1567   -2.0278 O   0  0  0  0  0  0  0  0  0  0  0  0
   -8.1256    2.7817    3.3446 O   0  0  0  0  0  0  0  0  0  0  0  0
   -6.3867    2.1703   -2.7212 C   0  0  0  0  0  0  0  0  0  0  0  0
   -7.5517    4.0715    3.5702 C   0  0  0  0  0  0  0  0  0  0  0  0
   -6.0399   -1.1319   -0.7504 N   0  0  0  0  0  0  0  0  0  0  0  0
   -7.3415    2.9589   -3.6188 C   0  0  0  0  0  0  0  0  0  0  0  0
   -7.0160   -1.9397    0.0303 C   0  0  0  0  0  0  0  0  0  0  0  0
   -4.9512   -2.0142   -1.2471 C   0  0  0  0  0  0  0  0  0  0  0  0
   -7.9422    2.0355   -4.6834 C   0  0  0  0  0  0  0  0  0  0  0  0
   -6.3706   -2.5798    1.2712 C   0  0  0  0  0  0  0  0  0  0  0  0
   -4.1450   -2.6270   -0.0892 C   0  0  0  0  0  0  0  0  0  0  0  0
   -6.9109    1.7104   -5.6940 N   0  0  0  0  0  0  0  0  0  0  0  0
   -4.8758   -2.5379    1.2132 N   0  0  0  0  0  0  0  0  0  0  0  0
   -4.1467   -2.6706    2.4096 C   0  0  0  0  0  0  0  0  0  0  0  0
   -3.0976   -3.5373    2.4942 N   0  0  0  0  0  0  0  0  0  0  0  0
   -4.5544   -2.0382    3.5469 N   0  0  0  0  0  0  0  0  0  0  0  0
   -7.3720    1.5658   -0.6795 C   0  0  0  0  0  0  0  0  0  0  0  0
   -6.5957    1.0237    0.3810 C   0  0  0  0  0  0  0  0  0  0  0  0
   -6.8475    1.4302    1.7208 C   0  0  0  0  0  0  0  0  0  0  0  0
   -7.8725    2.3755    1.9966 C   0  0  0  0  0  0  0  0  0  0  0  0
   -8.6452    2.9160    0.9354 C   0  0  0  0  0  0  0  0  0  0  0  0
   -8.3955    2.5102   -0.4020 C   0  0  0  0  0  0  0  0  0  0  0  0
  2  4  1  0  0  0  0
  3  5  1  0  0  0  0
  4  7  1  0  0  0  0
  6  1  1  0  0  0  0
  7 10  1  0  0  0  0
  8  6  1  0  0  0  0
  8 11  1  0  0  0  0
  9  6  1  0  0  0  0
 10 13  1  0  0  0  0
 11 14  1  0  0  0  0
 12  9  1  0  0  0  0
 14 12  1  0  0  0  0
 14 15  1  0  0  0  0
 15 16  1  0  0  0  0
 15 17  1  0  0  0  0
 18  2  1  0  0  0  0
 18 23  2  0  0  0  0
 19  1  1  0  0  0  0
 19 18  1  0  0  0  0
 20 19  2  0  0  0  0
 21  3  1  0  0  0  0
 21 20  1  0  0  0  0
 22 21  2  0  0  0  0
 22 23  1  0  0  0  0
M  END
>  <CHROM.1>
-102.10339367,-62.94957089,-67.20196405,-72.82618870,-57.97299322,131.81019755
-159.76900595,-130.05605809,-102.62086186,-52.54644622,102.33491943,-6.39012183
0.29966720,0.02048422,-0.68496404,1.02988858,-1.59125197

>  <Name>
1uui_lig

>  <RI>
0

>  <Rbt.Current_Directory>
/home/itssahil/PROJECTS/Mol_Feturizer/New_Systems/rnas/1uui

>  <Rbt.Executable>
rbdock ($Id: //depot/dev/client3/rdock/2013.1/src/exe/rbdock.cxx#4 $)

>  <Rbt.Library>
libRbt.so (2013.1, Build901 2013/11/27)

>  <Rbt.Parameter_File>
/export/apps/rDock/src/rDock_2013.1_src/data/scripts/dock_solv.prm

>  <Rbt.Receptor>
prm/pocket_docking_6.prm

>  <SCORE>
-29.4921

>  <SCORE.INTER>
-23.1482

>  <SCORE.INTER.CONST>
1

>  <SCORE.INTER.POLAR>
-3.43169

>  <SCORE.INTER.ROT>
10

>  <SCORE.INTER.SOLV>
6.88488

>  <SCORE.INTER.VDW>
-16.5548

>  <SCORE.INTER.norm>
-1.00644

>  <SCORE.INTRA>
-6.34393

>  <SCORE.INTRA.DIHEDRAL>
-3.48477

>  <SCORE.INTRA.DIHEDRAL.0>
23.4151

>  <SCORE.INTRA.POLAR>
-0.653066

>  <SCORE.INTRA.POLAR.0>
0

>  <SCORE.INTRA.REPUL>
0

>  <SCORE.INTRA.REPUL.0>
0

>  <SCORE.INTRA.SOLV>
0.523355

>  <SCORE.INTRA.SOLV.lig_0>
-17.3568

>  <SCORE.INTRA.VDW>
-2.6428

>  <SCORE.INTRA.VDW.0>
1.0768

>  <SCORE.INTRA.norm>
-0.275823

>  <SCORE.RESTR>
0

>  <SCORE.RESTR.CAVITY>
0

>  <SCORE.RESTR.norm>
0

>  <SCORE.SYSTEM>
0

>  <SCORE.SYSTEM.CONST>
0

>  <SCORE.SYSTEM.DIHEDRAL>
0

>  <SCORE.SYSTEM.SOLV>
0

>  <SCORE.SYSTEM.norm>
0

>  <SCORE.heavy>
23

>  <SCORE.norm>
-1.28227

>  <RMSD>
7.235

$$$$
1uui_lig
 OpenBabel11021811413D
libRbt.so/2013.1/901 2013/11/27
 23 24  0  0  0  0  0  0  0  0999 V2000
  -12.1266    2.1244    0.2954 C   0  0  0  0  0  0  0  0  0  0  0  0
  -13.1219   -0.4348   -0.6593 O   0  0  0  0  0  0  0  0  0  0  0  0
  -13.0478    0.4634    4.9702 O   0  0  0  0  0  0  0  0  0  0  0  0
  -14.4020   -0.0834   -1.1994 C   0  0  0  0  0  0  0  0  0  0  0  0
  -14.3883    0.5590    5.4580 C   0  0  0  0  0  0  0  0  0  0  0  0
  -10.6566    2.3513    0.4878 N   0  0  0  0  0  0  0  0  0  0  0  0
  -15.0989   -1.3502   -1.6981 C   0  0  0  0  0  0  0  0  0  0  0  0
  -10.1840    3.5228   -0.2990 C   0  0  0  0  0  0  0  0  0  0  0  0
   -9.8777    1.1461    0.0989 C   0  0  0  0  0  0  0  0  0  0  0  0
  -15.7177   -2.1065   -0.5182 C   0  0  0  0  0  0  0  0  0  0  0  0
  -10.4036    3.3279   -1.8089 C   0  0  0  0  0  0  0  0  0  0  0  0
  -10.1096    0.7721   -1.3751 C   0  0  0  0  0  0  0  0  0  0  0  0
  -17.1369   -1.7139   -0.3695 N   0  0  0  0  0  0  0  0  0  0  0  0
  -10.7023    1.9029   -2.1551 N   0  0  0  0  0  0  0  0  0  0  0  0
  -11.3415    1.6214   -3.3769 C   0  0  0  0  0  0  0  0  0  0  0  0
  -10.6291    1.5567   -4.5376 N   0  0  0  0  0  0  0  0  0  0  0  0
  -12.7008    1.5406   -3.4489 N   0  0  0  0  0  0  0  0  0  0  0  0
  -13.1059   -0.2057    0.7526 C   0  0  0  0  0  0  0  0  0  0  0  0
  -12.6273    1.0304    1.2667 C   0  0  0  0  0  0  0  0  0  0  0  0
  -12.6092    1.2519    2.6718 C   0  0  0  0  0  0  0  0  0  0  0  0
  -13.0685    0.2396    3.5576 C   0  0  0  0  0  0  0  0  0  0  0  0
  -13.5470   -0.9931    3.0411 C   0  0  0  0  0  0  0  0  0  0  0  0
  -13.5646   -1.2158    1.6390 C   0  0  0  0  0  0  0  0  0  0  0  0
  2  4  1  0  0  0  0
  3  5  1  0  0  0  0
  4  7  1  0  0  0  0
  6  1  1  0  0  0  0
  7 10  1  0  0  0  0
  8  6  1  0  0  0  0
  8 11  1  0  0  0  0
  9  6  1  0  0  0  0
 10 13  1  0  0  0  0
 11 14  1  0  0  0  0
 12  9  1  0  0  0  0
 14 12  1  0  0  0  0
 14 15  1  0  0  0  0
 15 16  1  0  0  0  0
 15 17  1  0  0  0  0
 18  2  1  0  0  0  0
 18 23  2  0  0  0  0
 19  1  1  0  0  0  0
 19 18  1  0  0  0  0
 20 19  2  0  0  0  0
 21  3  1  0  0  0  0
 21 20  1  0  0  0  0
 22 21  2  0  0  0  0
 22 23  1  0  0  0  0
M  END
>  <CHROM.1>
-113.04872261,79.47757662,-172.27568648,94.55704278,175.28289606,81.70921581
127.49559939,-169.92411237,-93.69906918,-114.42714509,111.64685026,-12.64760285
0.66421798,0.06640509,-0.91843497,0.63779706,1.53826215

>  <Name>
1uui_lig

>  <RI>
0

>  <Rbt.Current_Directory>
/home/itssahil/PROJECTS/Mol_Feturizer/New_Systems/rnas/1uui

>  <Rbt.Executable>
rbdock ($Id: //depot/dev/client3/rdock/2013.1/src/exe/rbdock.cxx#4 $)

>  <Rbt.Library>
libRbt.so (2013.1, Build901 2013/11/27)

>  <Rbt.Parameter_File>
/export/apps/rDock/src/rDock_2013.1_src/data/scripts/dock_solv.prm

>  <Rbt.Receptor>
prm/pocket_docking_6.prm

>  <SCORE>
-16.5586

>  <SCORE.INTER>
-13.7142

>  <SCORE.INTER.CONST>
1

>  <SCORE.INTER.POLAR>
-2.10148

>  <SCORE.INTER.ROT>
10

>  <SCORE.INTER.SOLV>
6.40445

>  <SCORE.INTER.VDW>
-14.5394

>  <SCORE.INTER.norm>
-0.596271

>  <SCORE.INTRA>
-2.84434

>  <SCORE.INTRA.DIHEDRAL>
1.79652

>  <SCORE.INTRA.DIHEDRAL.0>
23.4151

>  <SCORE.INTRA.POLAR>
0

>  <SCORE.INTRA.POLAR.0>
0

>  <SCORE.INTRA.REPUL>
0

>  <SCORE.INTRA.REPUL.0>
0

>  <SCORE.INTRA.SOLV>
1.03483

>  <SCORE.INTRA.SOLV.lig_0>
-17.3568

>  <SCORE.INTRA.VDW>
-4.26001

>  <SCORE.INTRA.VDW.0>
1.0768

>  <SCORE.INTRA.norm>
-0.123667

>  <SCORE.RESTR>
0

>  <SCORE.RESTR.CAVITY>
0

>  <SCORE.RESTR.norm>
0

>  <SCORE.SYSTEM>
0

>  <SCORE.SYSTEM.CONST>
0

>  <SCORE.SYSTEM.DIHEDRAL>
0

>  <SCORE.SYSTEM.SOLV>
0

>  <SCORE.SYSTEM.norm>
0

>  <SCORE.heavy>
23

>  <SCORE.norm>
-0.719938

>  <RMSD>
7.236

$$$$
1uui_lig
 OpenBabel11021811413D
libRbt.so/2013.1/901 2013/11/27
 23 24  0  0  0  0  0  0  0  0999 V2000
  -12.6227   -0.2510    1.2071 C   0  0  0  0  0  0  0  0  0  0  0  0
  -13.9735   -2.2187    2.8670 O   0  0  0  0  0  0  0  0  0  0  0  0
  -11.9059    2.4455    5.4115 O   0  0  0  0  0  0  0  0  0  0  0  0
  -15.3948   -2.1108    2.7172 C   0  0  0  0  0  0  0  0  0  0  0  0
  -12.9838    3.2166    5.9478 C   0  0  0  0  0  0  0  0  0  0  0  0
  -11.8534    0.8953    0.6211 N   0  0  0  0  0  0  0  0  0  0  0  0
  -15.9174   -3.3550    1.9975 C   0  0  0  0  0  0  0  0  0  0  0  0
  -12.7601    2.0067    0.2242 C   0  0  0  0  0  0  0  0  0  0  0  0
  -11.0618    0.4561   -0.5583 C   0  0  0  0  0  0  0  0  0  0  0  0
  -17.4489   -3.3364    1.9646 C   0  0  0  0  0  0  0  0  0  0  0  0
  -13.7747    1.5673   -0.8451 C   0  0  0  0  0  0  0  0  0  0  0  0
  -11.9629   -0.1225   -1.6627 C   0  0  0  0  0  0  0  0  0  0  0  0
  -17.9395   -4.4760    1.1577 N   0  0  0  0  0  0  0  0  0  0  0  0
  -13.3960    0.2657   -1.4793 N   0  0  0  0  0  0  0  0  0  0  0  0
  -14.3901   -0.4832   -2.1361 C   0  0  0  0  0  0  0  0  0  0  0  0
  -15.2397   -1.2835   -1.4312 N   0  0  0  0  0  0  0  0  0  0  0  0
  -14.4401   -0.5306   -3.4980 N   0  0  0  0  0  0  0  0  0  0  0  0
  -13.4573   -1.0458    3.5026 C   0  0  0  0  0  0  0  0  0  0  0  0
  -12.7883   -0.0558    2.7321 C   0  0  0  0  0  0  0  0  0  0  0  0
  -12.2726    1.1068    3.3694 C   0  0  0  0  0  0  0  0  0  0  0  0
  -12.4267    1.2766    4.7722 C   0  0  0  0  0  0  0  0  0  0  0  0
  -13.0963    0.2870    5.5386 C   0  0  0  0  0  0  0  0  0  0  0  0
  -13.6104   -0.8743    4.9039 C   0  0  0  0  0  0  0  0  0  0  0  0
  2  4  1  0  0  0  0
  3  5  1  0  0  0  0
  4  7  1  0  0  0  0
  6  1  1  0  0  0  0
  7 10  1  0  0  0  0
  8  6  1  0  0  0  0
  8 11  1  0  0  0  0
  9  6  1  0  0  0  0
 10 13  1  0  0  0  0
 11 14  1  0  0  0  0
 12  9  1  0  0  0  0
 14 12  1  0  0  0  0
 14 15  1  0  0  0  0
 15 16  1  0  0  0  0
 15 17  1  0  0  0  0
 18  2  1  0  0  0  0
 18 23  2  0  0  0  0
 19  1  1  0  0  0  0
 19 18  1  0  0  0  0
 20 19  2  0  0  0  0
 21  3  1  0  0  0  0
 21 20  1  0  0  0  0
 22 21  2  0  0  0  0
 22 23  1  0  0  0  0
M  END
>  <CHROM.1>
178.26779850,173.71140742,-88.61337107,174.72573069,52.48048249,-81.39142842
173.02204980,134.86905001,-103.23490583,-178.26741251,115.34371109,-13.74012100
-0.32819197,1.55428549,-1.01473700,-0.83714848,-1.60602021

>  <Name>
1uui_lig

>  <RI>
0

>  <Rbt.Current_Directory>
/home/itssahil/PROJECTS/Mol_Feturizer/New_Systems/rnas/1uui

>  <Rbt.Executable>
rbdock ($Id: //depot/dev/client3/rdock/2013.1/src/exe/rbdock.cxx#4 $)

>  <Rbt.Library>
libRbt.so (2013.1, Build901 2013/11/27)

>  <Rbt.Parameter_File>
/export/apps/rDock/src/rDock_2013.1_src/data/scripts/dock_solv.prm

>  <Rbt.Receptor>
prm/pocket_docking_6.prm

>  <SCORE>
-29.9392

>  <SCORE.INTER>
-24.2086

>  <SCORE.INTER.CONST>
1

>  <SCORE.INTER.POLAR>
-3.14957

>  <SCORE.INTER.ROT>
10

>  <SCORE.INTER.SOLV>
6.63515

>  <SCORE.INTER.VDW>
-18.1189

>  <SCORE.INTER.norm>
-1.05255

>  <SCORE.INTRA>
-5.73059

>  <SCORE.INTRA.DIHEDRAL>
-8.53244

>  <SCORE.INTRA.DIHEDRAL.0>
23.4151

>  <SCORE.INTRA.POLAR>
0

>  <SCORE.INTRA.POLAR.0>
0

>  <SCORE.INTRA.REPUL>
0

>  <SCORE.INTRA.REPUL.0>
0

>  <SCORE.INTRA.SOLV>
0.122269

>  <SCORE.INTRA.SOLV.lig_0>
-17.3568

>  <SCORE.INTRA.VDW>
-1.52551

>  <SCORE.INTRA.VDW.0>
1.0768

>  <SCORE.INTRA.norm>
-0.249156

>  <SCORE.RESTR>
0

>  <SCORE.RESTR.CAVITY>
0

>  <SCORE.RESTR.norm>
0

>  <SCORE.SYSTEM>
0

>  <SCORE.SYSTEM.CONST>
0

>  <SCORE.SYSTEM.DIHEDRAL>
0

>  <SCORE.SYSTEM.SOLV>
0

>  <SCORE.SYSTEM.norm>
0

>  <SCORE.heavy>
23

>  <SCORE.norm>
-1.3017

>  <RMSD>
7.250

$$$$
1uui_lig
 OpenBabel11021811413D
libRbt.so/2013.1/901 2013/11/27
 23 24  0  0  0  0  0  0  0  0999 V2000
  -13.5800    1.3403    1.2646 C   0  0  0  0  0  0  0  0  0  0  0  0
  -13.6831   -1.5166    1.7927 O   0  0  0  0  0  0  0  0  0  0  0  0
  -14.9675    2.0313    6.0667 O   0  0  0  0  0  0  0  0  0  0  0  0
  -14.8822   -2.0392    1.2069 C   0  0  0  0  0  0  0  0  0  0  0  0
  -16.3867    2.1769    6.1590 C   0  0  0  0  0  0  0  0  0  0  0  0
  -12.0963    1.5469    1.1919 N   0  0  0  0  0  0  0  0  0  0  0  0
  -15.1795   -3.4102    1.8159 C   0  0  0  0  0  0  0  0  0  0  0  0
  -11.7604    2.7868    0.4406 C   0  0  0  0  0  0  0  0  0  0  0  0
  -11.4287    0.3830    0.5514 C   0  0  0  0  0  0  0  0  0  0  0  0
  -16.3685   -3.3097    2.7769 C   0  0  0  0  0  0  0  0  0  0  0  0
  -12.2676    2.7351   -1.0107 C   0  0  0  0  0  0  0  0  0  0  0  0
  -11.9444    0.1496   -0.8789 C   0  0  0  0  0  0  0  0  0  0  0  0
  -16.5041   -4.5771    3.5290 N   0  0  0  0  0  0  0  0  0  0  0  0
  -12.6536    1.3493   -1.4231 N   0  0  0  0  0  0  0  0  0  0  0  0
  -13.5192    1.1846   -2.5204 C   0  0  0  0  0  0  0  0  0  0  0  0
  -13.4295    0.0840   -3.3201 N   0  0  0  0  0  0  0  0  0  0  0  0
  -14.3743    2.1812   -2.8882 N   0  0  0  0  0  0  0  0  0  0  0  0
  -14.0087   -0.6245    2.8624 C   0  0  0  0  0  0  0  0  0  0  0  0
  -13.9715    0.7810    2.6521 C   0  0  0  0  0  0  0  0  0  0  0  0
  -14.2917    1.6643    3.7203 C   0  0  0  0  0  0  0  0  0  0  0  0
  -14.6476    1.1416    4.9933 C   0  0  0  0  0  0  0  0  0  0  0  0
  -14.6850   -0.2624    5.1998 C   0  0  0  0  0  0  0  0  0  0  0  0
  -14.3646   -1.1449    4.1348 C   0  0  0  0  0  0  0  0  0  0  0  0
  2  4  1  0  0  0  0
  3  5  1  0  0  0  0
  4  7  1  0  0  0  0
  6  1  1  0  0  0  0
  7 10  1  0  0  0  0
  8  6  1  0  0  0  0
  8 11  1  0  0  0  0
  9  6  1  0  0  0  0
 10 13  1  0  0  0  0
 11 14  1  0  0  0  0
 12  9  1  0  0  0  0
 14 12  1  0  0  0  0
 14 15  1  0  0  0  0
 15 16  1  0  0  0  0
 15 17  1  0  0  0  0
 18  2  1  0  0  0  0
 18 23  2  0  0  0  0
 19  1  1  0  0  0  0
 19 18  1  0  0  0  0
 20 19  2  0  0  0  0
 21  3  1  0  0  0  0
 21 20  1  0  0  0  0
 22 21  2  0  0  0  0
 22 23  1  0  0  0  0
M  END
>  <CHROM.1>
-96.79394406,106.84242474,-141.70417181,-170.51871980,-46.23715470,149.04732915
35.38576255,160.06478088,-100.66828804,-89.88178605,97.19090672,-13.97852637
0.17136184,1.62062030,-0.53785715,1.13058288,0.92280730

>  <Name>
1uui_lig

>  <RI>
0

>  <Rbt.Current_Directory>
/home/itssahil/PROJECTS/Mol_Feturizer/New_Systems/rnas/1uui

>  <Rbt.Executable>
rbdock ($Id: //depot/dev/client3/rdock/2013.1/src/exe/rbdock.cxx#4 $)

>  <Rbt.Library>
libRbt.so (2013.1, Build901 2013/11/27)

>  <Rbt.Parameter_File>
/export/apps/rDock/src/rDock_2013.1_src/data/scripts/dock_solv.prm

>  <Rbt.Receptor>
prm/pocket_docking_5.prm

>  <SCORE>
-15.8041

>  <SCORE.INTER>
-14.7856

>  <SCORE.INTER.CONST>
1

>  <SCORE.INTER.POLAR>
-2.40813

>  <SCORE.INTER.ROT>
10

>  <SCORE.INTER.SOLV>
4.20969

>  <SCORE.INTER.VDW>
-13.4999

>  <SCORE.INTER.norm>
-0.642854

>  <SCORE.INTRA>
-1.02556

>  <SCORE.INTRA.DIHEDRAL>
3.16523

>  <SCORE.INTRA.DIHEDRAL.0>
23.4151

>  <SCORE.INTRA.POLAR>
0

>  <SCORE.INTRA.POLAR.0>
0

>  <SCORE.INTRA.REPUL>
0

>  <SCORE.INTRA.REPUL.0>
0

>  <SCORE.INTRA.SOLV>
0.213707

>  <SCORE.INTRA.SOLV.lig_0>
-17.3568

>  <SCORE.INTRA.VDW>
-2.71504

>  <SCORE.INTRA.VDW.0>
1.0768

>  <SCORE.INTRA.norm>
-0.0445898

>  <SCORE.RESTR>
0.00708162

>  <SCORE.RESTR.CAVITY>
0.00708162

>  <SCORE.RESTR.norm>
0.000307897

>  <SCORE.SYSTEM>
0

>  <SCORE.SYSTEM.CONST>
0

>  <SCORE.SYSTEM.DIHEDRAL>
0

>  <SCORE.SYSTEM.SOLV>
0

>  <SCORE.SYSTEM.norm>
0

>  <SCORE.heavy>
23

>  <SCORE.norm>
-0.687135

>  <RMSD>
7.253

$$$$
1uui_lig
 OpenBabel11021811413D
libRbt.so/2013.1/901 2013/11/27
 23 24  0  0  0  0  0  0  0  0999 V2000
   -7.9133    3.9534   -0.3163 C   0  0  0  0  0  0  0  0  0  0  0  0
   -7.3336    1.4810   -1.7315 O   0  0  0  0  0  0  0  0  0  0  0  0
  -10.7042    1.1971    2.8579 O   0  0  0  0  0  0  0  0  0  0  0  0
   -6.5923    0.2621   -1.8676 C   0  0  0  0  0  0  0  0  0  0  0  0
  -11.9833    1.7561    2.5490 C   0  0  0  0  0  0  0  0  0  0  0  0
   -8.6872    5.0801    0.3011 N   0  0  0  0  0  0  0  0  0  0  0  0
   -5.8455    0.2776   -3.2023 C   0  0  0  0  0  0  0  0  0  0  0  0
  -10.0591    5.1682   -0.2687 C   0  0  0  0  0  0  0  0  0  0  0  0
   -7.9852    6.3761    0.1062 C   0  0  0  0  0  0  0  0  0  0  0  0
   -6.7807    0.7498   -4.3201 C   0  0  0  0  0  0  0  0  0  0  0  0
  -10.0367    5.4305   -1.7842 C   0  0  0  0  0  0  0  0  0  0  0  0
   -7.7911    6.6974   -1.3855 C   0  0  0  0  0  0  0  0  0  0  0  0
   -6.4267    0.0639   -5.5829 N   0  0  0  0  0  0  0  0  0  0  0  0
   -8.6899    5.8793   -2.2580 N   0  0  0  0  0  0  0  0  0  0  0  0
   -8.3720    5.7462   -3.6224 C   0  0  0  0  0  0  0  0  0  0  0  0
   -7.8814    4.5723   -4.1126 N   0  0  0  0  0  0  0  0  0  0  0  0
   -8.4195    6.8239   -4.4566 N   0  0  0  0  0  0  0  0  0  0  0  0
   -8.1822    1.4128   -0.5820 C   0  0  0  0  0  0  0  0  0  0  0  0
   -8.4934    2.5956    0.1429 C   0  0  0  0  0  0  0  0  0  0  0  0
   -9.3341    2.5221    1.2882 C   0  0  0  0  0  0  0  0  0  0  0  0
   -9.8605    1.2693    1.7050 C   0  0  0  0  0  0  0  0  0  0  0  0
   -9.5490    0.0903    0.9783 C   0  0  0  0  0  0  0  0  0  0  0  0
   -8.7092    0.1622   -0.1641 C   0  0  0  0  0  0  0  0  0  0  0  0
  2  4  1  0  0  0  0
  3  5  1  0  0  0  0
  4  7  1  0  0  0  0
  6  1  1  0  0  0  0
  7 10  1  0  0  0  0
  8  6  1  0  0  0  0
  8 11  1  0  0  0  0
  9  6  1  0  0  0  0
 10 13  1  0  0  0  0
 11 14  1  0  0  0  0
 12  9  1  0  0  0  0
 14 12  1  0  0  0  0
 14 15  1  0  0  0  0
 15 16  1  0  0  0  0
 15 17  1  0  0  0  0
 18  2  1  0  0  0  0
 18 23  2  0  0  0  0
 19  1  1  0  0  0  0
 19 18  1  0  0  0  0
 20 19  2  0  0  0  0
 21  3  1  0  0  0  0
 21 20  1  0  0  0  0
 22 21  2  0  0  0  0
 22 23  1  0  0  0  0
M  END
>  <CHROM.1>
172.08563509,-45.69432434,-69.61927150,-146.95536171,51.30613641,-84.89806920
-65.52629867,101.45169946,149.06875021,162.44884519,72.66978410,-8.48573071
3.04421845,-1.20274731,2.46667785,-1.04906116,2.81125206

>  <Name>
1uui_lig

>  <RI>
0

>  <Rbt.Current_Directory>
/home/itssahil/PROJECTS/Mol_Feturizer/New_Systems/rnas/1uui

>  <Rbt.Executable>
rbdock ($Id: //depot/dev/client3/rdock/2013.1/src/exe/rbdock.cxx#4 $)

>  <Rbt.Library>
libRbt.so (2013.1, Build901 2013/11/27)

>  <Rbt.Parameter_File>
/export/apps/rDock/src/rDock_2013.1_src/data/scripts/dock_solv.prm

>  <Rbt.Receptor>
prm/pocket_docking_6.prm

>  <SCORE>
-16.2295

>  <SCORE.INTER>
-12.7755

>  <SCORE.INTER.CONST>
1

>  <SCORE.INTER.POLAR>
-3.1927

>  <SCORE.INTER.ROT>
10

>  <SCORE.INTER.SOLV>
4.38978

>  <SCORE.INTER.VDW>
-9.60456

>  <SCORE.INTER.norm>
-0.555455

>  <SCORE.INTRA>
-3.45405

>  <SCORE.INTRA.DIHEDRAL>
-8.85416

>  <SCORE.INTRA.DIHEDRAL.0>
23.4151

>  <SCORE.INTRA.POLAR>
0

>  <SCORE.INTRA.POLAR.0>
0

>  <SCORE.INTRA.REPUL>
0.00429409

>  <SCORE.INTRA.REPUL.0>
0

>  <SCORE.INTRA.SOLV>
0.213797

>  <SCORE.INTRA.SOLV.lig_0>
-17.3568

>  <SCORE.INTRA.VDW>
0.844666

>  <SCORE.INTRA.VDW.0>
1.0768

>  <SCORE.INTRA.norm>
-0.150176

>  <SCORE.RESTR>
0

>  <SCORE.RESTR.CAVITY>
0

>  <SCORE.RESTR.norm>
0

>  <SCORE.SYSTEM>
0

>  <SCORE.SYSTEM.CONST>
0

>  <SCORE.SYSTEM.DIHEDRAL>
0

>  <SCORE.SYSTEM.SOLV>
0

>  <SCORE.SYSTEM.norm>
0

>  <SCORE.heavy>
23

>  <SCORE.norm>
-0.705631

>  <RMSD>
7.259

$$$$
1uui_lig
 OpenBabel11021811413D
libRbt.so/2013.1/901 2013/11/27
 23 24  0  0  0  0  0  0  0  0999 V2000
   -8.0785    2.1478    1.0235 C   0  0  0  0  0  0  0  0  0  0  0  0
   -8.1295    4.8003   -0.1652 O   0  0  0  0  0  0  0  0  0  0  0  0
   -8.2779    4.4255    5.5218 O   0  0  0  0  0  0  0  0  0  0  0  0
   -7.5492    6.0500   -0.5595 C   0  0  0  0  0  0  0  0  0  0  0  0
   -9.6248    4.5872    5.9733 C   0  0  0  0  0  0  0  0  0  0  0  0
   -7.0731    2.3168   -0.0765 N   0  0  0  0  0  0  0  0  0  0  0  0
   -7.2314    6.0038   -2.0548 C   0  0  0  0  0  0  0  0  0  0  0  0
   -7.4336    1.4999   -1.2671 C   0  0  0  0  0  0  0  0  0  0  0  0
   -5.7107    1.9432    0.3870 C   0  0  0  0  0  0  0  0  0  0  0  0
   -8.4670    5.5505   -2.8390 C   0  0  0  0  0  0  0  0  0  0  0  0
   -7.4787   -0.0027   -0.9413 C   0  0  0  0  0  0  0  0  0  0  0  0
   -5.6535    0.4804    0.8593 C   0  0  0  0  0  0  0  0  0  0  0  0
   -8.1350    5.4673   -4.2789 N   0  0  0  0  0  0  0  0  0  0  0  0
   -6.8204   -0.3154    0.3659 N   0  0  0  0  0  0  0  0  0  0  0  0
   -7.1398   -1.5228    1.0144 C   0  0  0  0  0  0  0  0  0  0  0  0
   -7.1673   -2.6986    0.3245 N   0  0  0  0  0  0  0  0  0  0  0  0
   -7.5590   -1.5263    2.3120 N   0  0  0  0  0  0  0  0  0  0  0  0
   -8.1627    4.7039    1.2616 C   0  0  0  0  0  0  0  0  0  0  0  0
   -8.1404    3.4281    1.8885 C   0  0  0  0  0  0  0  0  0  0  0  0
   -8.1782    3.3371    3.3077 C   0  0  0  0  0  0  0  0  0  0  0  0
   -8.2381    4.5190    4.0950 C   0  0  0  0  0  0  0  0  0  0  0  0
   -8.2590    5.7916    3.4661 C   0  0  0  0  0  0  0  0  0  0  0  0
   -8.2225    5.8836    2.0498 C   0  0  0  0  0  0  0  0  0  0  0  0
  2  4  1  0  0  0  0
  3  5  1  0  0  0  0
  4  7  1  0  0  0  0
  6  1  1  0  0  0  0
  7 10  1  0  0  0  0
  8  6  1  0  0  0  0
  8 11  1  0  0  0  0
  9  6  1  0  0  0  0
 10 13  1  0  0  0  0
 11 14  1  0  0  0  0
 12  9  1  0  0  0  0
 14 12  1  0  0  0  0
 14 15  1  0  0  0  0
 15 16  1  0  0  0  0
 15 17  1  0  0  0  0
 18  2  1  0  0  0  0
 18 23  2  0  0  0  0
 19  1  1  0  0  0  0
 19 18  1  0  0  0  0
 20 19  2  0  0  0  0
 21  3  1  0  0  0  0
 21 20  1  0  0  0  0
 22 21  2  0  0  0  0
 22 23  1  0  0  0  0
M  END
>  <CHROM.1>
167.26794694,51.28933619,-151.29878460,-178.17068626,56.49908041,46.63698954
130.06091851,-126.06747954,-153.18819576,44.13293989,-100.01077101,-7.68230350
2.86385971,0.88333487,0.55418732,-1.35336964,2.19244922

>  <Name>
1uui_lig

>  <RI>
0

>  <Rbt.Current_Directory>
/home/itssahil/PROJECTS/Mol_Feturizer/New_Systems/rnas/1uui

>  <Rbt.Executable>
rbdock ($Id: //depot/dev/client3/rdock/2013.1/src/exe/rbdock.cxx#4 $)

>  <Rbt.Library>
libRbt.so (2013.1, Build901 2013/11/27)

>  <Rbt.Parameter_File>
/export/apps/rDock/src/rDock_2013.1_src/data/scripts/dock_solv.prm

>  <Rbt.Receptor>
prm/pocket_docking_8.prm

>  <SCORE>
-28.8069

>  <SCORE.INTER>
-21.2251

>  <SCORE.INTER.CONST>
1

>  <SCORE.INTER.POLAR>
-4.18723

>  <SCORE.INTER.ROT>
10

>  <SCORE.INTER.SOLV>
6.32966

>  <SCORE.INTER.VDW>
-12.5692

>  <SCORE.INTER.norm>
-0.92283

>  <SCORE.INTRA>
-7.58175

>  <SCORE.INTRA.DIHEDRAL>
-10.817

>  <SCORE.INTRA.DIHEDRAL.0>
23.4151

>  <SCORE.INTRA.POLAR>
-0.678458

>  <SCORE.INTRA.POLAR.0>
0

>  <SCORE.INTRA.REPUL>
0

>  <SCORE.INTRA.REPUL.0>
0

>  <SCORE.INTRA.SOLV>
0.352013

>  <SCORE.INTRA.SOLV.lig_0>
-17.3568

>  <SCORE.INTRA.VDW>
-0.0425179

>  <SCORE.INTRA.VDW.0>
1.0768

>  <SCORE.INTRA.norm>
-0.329641

>  <SCORE.RESTR>
0

>  <SCORE.RESTR.CAVITY>
0

>  <SCORE.RESTR.norm>
0

>  <SCORE.SYSTEM>
0

>  <SCORE.SYSTEM.CONST>
0

>  <SCORE.SYSTEM.DIHEDRAL>
0

>  <SCORE.SYSTEM.SOLV>
0

>  <SCORE.SYSTEM.norm>
0

>  <SCORE.heavy>
23

>  <SCORE.norm>
-1.25247

>  <RMSD>
7.269

$$$$
1uui_lig
 OpenBabel11021811413D
libRbt.so/2013.1/901 2013/11/27
 23 24  0  0  0  0  0  0  0  0999 V2000
   -5.5763   -0.1274   -0.0616 C   0  0  0  0  0  0  0  0  0  0  0  0
   -7.2952    1.1723   -2.0128 O   0  0  0  0  0  0  0  0  0  0  0  0
   -7.7358    2.8039    3.4321 O   0  0  0  0  0  0  0  0  0  0  0  0
   -6.2006    1.8477   -2.6449 C   0  0  0  0  0  0  0  0  0  0  0  0
   -6.9334    3.9669    3.6507 C   0  0  0  0  0  0  0  0  0  0  0  0
   -6.2949   -1.2576   -0.7366 N   0  0  0  0  0  0  0  0  0  0  0  0
   -6.2959    1.6467   -4.1581 C   0  0  0  0  0  0  0  0  0  0  0  0
   -7.1753   -1.9841    0.2182 C   0  0  0  0  0  0  0  0  0  0  0  0
   -5.3308   -2.2114   -1.3461 C   0  0  0  0  0  0  0  0  0  0  0  0
   -7.4121    2.5241   -4.7337 C   0  0  0  0  0  0  0  0  0  0  0  0
   -6.3780   -2.6026    1.3791 C   0  0  0  0  0  0  0  0  0  0  0  0
   -4.3860   -2.8140   -0.2923 C   0  0  0  0  0  0  0  0  0  0  0  0
   -7.4224    2.4056   -6.2089 N   0  0  0  0  0  0  0  0  0  0  0  0
   -4.9084   -2.6356    1.0982 N   0  0  0  0  0  0  0  0  0  0  0  0
   -4.0140   -2.7536    2.1783 C   0  0  0  0  0  0  0  0  0  0  0  0
   -3.6516   -3.9794    2.6526 N   0  0  0  0  0  0  0  0  0  0  0  0
   -3.5958   -1.6488    2.8596 N   0  0  0  0  0  0  0  0  0  0  0  0
   -7.4013    1.5827   -0.6467 C   0  0  0  0  0  0  0  0  0  0  0  0
   -6.5817    0.9753    0.3436 C   0  0  0  0  0  0  0  0  0  0  0  0
   -6.6939    1.3837    1.7017 C   0  0  0  0  0  0  0  0  0  0  0  0
   -7.6230    2.3959    2.0657 C   0  0  0  0  0  0  0  0  0  0  0  0
   -8.4391    3.0014    1.0744 C   0  0  0  0  0  0  0  0  0  0  0  0
   -8.3288    2.5940   -0.2811 C   0  0  0  0  0  0  0  0  0  0  0  0
  2  4  1  0  0  0  0
  3  5  1  0  0  0  0
  4  7  1  0  0  0  0
  6  1  1  0  0  0  0
  7 10  1  0  0  0  0
  8  6  1  0  0  0  0
  8 11  1  0  0  0  0
  9  6  1  0  0  0  0
 10 13  1  0  0  0  0
 11 14  1  0  0  0  0
 12  9  1  0  0  0  0
 14 12  1  0  0  0  0
 14 15  1  0  0  0  0
 15 16  1  0  0  0  0
 15 17  1  0  0  0  0
 18  2  1  0  0  0  0
 18 23  2  0  0  0  0
 19  1  1  0  0  0  0
 19 18  1  0  0  0  0
 20 19  2  0  0  0  0
 21  3  1  0  0  0  0
 21 20  1  0  0  0  0
 22 21  2  0  0  0  0
 22 23  1  0  0  0  0
M  END
>  <CHROM.1>
-167.26474731,74.81991552,-67.89525111,175.40787701,176.69020385,87.65385550
21.77252770,-41.19430859,-82.72764967,-57.43393052,95.96729154,-6.30399280
0.24822224,-0.05447436,-0.70335818,1.08930771,-1.65569935

>  <Name>
1uui_lig

>  <RI>
0

>  <Rbt.Current_Directory>
/home/itssahil/PROJECTS/Mol_Feturizer/New_Systems/rnas/1uui

>  <Rbt.Executable>
rbdock ($Id: //depot/dev/client3/rdock/2013.1/src/exe/rbdock.cxx#4 $)

>  <Rbt.Library>
libRbt.so (2013.1, Build901 2013/11/27)

>  <Rbt.Parameter_File>
/export/apps/rDock/src/rDock_2013.1_src/data/scripts/dock_solv.prm

>  <Rbt.Receptor>
prm/pocket_docking_8.prm

>  <SCORE>
-34.4465

>  <SCORE.INTER>
-25.0084

>  <SCORE.INTER.CONST>
1

>  <SCORE.INTER.POLAR>
-3.25168

>  <SCORE.INTER.ROT>
10

>  <SCORE.INTER.SOLV>
7.68348

>  <SCORE.INTER.VDW>
-18.6612

>  <SCORE.INTER.norm>
-1.08732

>  <SCORE.INTRA>
-9.43809

>  <SCORE.INTRA.DIHEDRAL>
-7.66509

>  <SCORE.INTRA.DIHEDRAL.0>
23.4151

>  <SCORE.INTRA.POLAR>
-0.509799

>  <SCORE.INTRA.POLAR.0>
0

>  <SCORE.INTRA.REPUL>
0

>  <SCORE.INTRA.REPUL.0>
0

>  <SCORE.INTRA.SOLV>
0.300354

>  <SCORE.INTRA.SOLV.lig_0>
-17.3568

>  <SCORE.INTRA.VDW>
-4.0224

>  <SCORE.INTRA.VDW.0>
1.0768

>  <SCORE.INTRA.norm>
-0.410352

>  <SCORE.RESTR>
0

>  <SCORE.RESTR.CAVITY>
0

>  <SCORE.RESTR.norm>
0

>  <SCORE.SYSTEM>
0

>  <SCORE.SYSTEM.CONST>
0

>  <SCORE.SYSTEM.DIHEDRAL>
0

>  <SCORE.SYSTEM.SOLV>
0

>  <SCORE.SYSTEM.norm>
0

>  <SCORE.heavy>
23

>  <SCORE.norm>
-1.49767

>  <RMSD>
7.317

$$$$
1uui_lig
 OpenBabel11021811413D
libRbt.so/2013.1/901 2013/11/27
 23 24  0  0  0  0  0  0  0  0999 V2000
   -7.0595    0.5877   -0.3505 C   0  0  0  0  0  0  0  0  0  0  0  0
   -6.9021   -1.3714   -2.4926 O   0  0  0  0  0  0  0  0  0  0  0  0
   -3.7506   -2.2659    2.1735 O   0  0  0  0  0  0  0  0  0  0  0  0
   -6.2210   -0.4715   -3.3759 C   0  0  0  0  0  0  0  0  0  0  0  0
   -2.3773   -2.4028    1.8000 C   0  0  0  0  0  0  0  0  0  0  0  0
   -8.1861    0.4967    0.6355 N   0  0  0  0  0  0  0  0  0  0  0  0
   -7.0711    0.7864   -3.5607 C   0  0  0  0  0  0  0  0  0  0  0  0
   -9.3174   -0.3015    0.0898 C   0  0  0  0  0  0  0  0  0  0  0  0
   -8.6713    1.8501    1.0139 C   0  0  0  0  0  0  0  0  0  0  0  0
   -6.3130    1.8104   -4.4116 C   0  0  0  0  0  0  0  0  0  0  0  0
   -9.9016    0.3270   -1.1867 C   0  0  0  0  0  0  0  0  0  0  0  0
   -9.1757    2.6344   -0.2094 C   0  0  0  0  0  0  0  0  0  0  0  0
   -6.5230    1.5128   -5.8461 N   0  0  0  0  0  0  0  0  0  0  0  0
   -9.4469    1.7399   -1.3776 N   0  0  0  0  0  0  0  0  0  0  0  0
   -9.5186    2.3076   -2.6633 C   0  0  0  0  0  0  0  0  0  0  0  0
   -9.0155    3.5515   -2.9052 N   0  0  0  0  0  0  0  0  0  0  0  0
  -10.2098    1.6861   -3.6611 N   0  0  0  0  0  0  0  0  0  0  0  0
   -6.1152   -1.5957   -1.3193 C   0  0  0  0  0  0  0  0  0  0  0  0
   -6.1588   -0.6649   -0.2456 C   0  0  0  0  0  0  0  0  0  0  0  0
   -5.3710   -0.8898    0.9174 C   0  0  0  0  0  0  0  0  0  0  0  0
   -4.5435   -2.0423    1.0041 C   0  0  0  0  0  0  0  0  0  0  0  0
   -4.5031   -2.9706   -0.0692 C   0  0  0  0  0  0  0  0  0  0  0  0
   -5.2880   -2.7466   -1.2308 C   0  0  0  0  0  0  0  0  0  0  0  0
  2  4  1  0  0  0  0
  3  5  1  0  0  0  0
  4  7  1  0  0  0  0
  6  1  1  0  0  0  0
  7 10  1  0  0  0  0
  8  6  1  0  0  0  0
  8 11  1  0  0  0  0
  9  6  1  0  0  0  0
 10 13  1  0  0  0  0
 11 14  1  0  0  0  0
 12  9  1  0  0  0  0
 14 12  1  0  0  0  0
 14 15  1  0  0  0  0
 15 16  1  0  0  0  0
 15 17  1  0  0  0  0
 18  2  1  0  0  0  0
 18 23  2  0  0  0  0
 19  1  1  0  0  0  0
 19 18  1  0  0  0  0
 20 19  2  0  0  0  0
 21  3  1  0  0  0  0
 21 20  1  0  0  0  0
 22 21  2  0  0  0  0
 22 23  1  0  0  0  0
M  END
>  <CHROM.1>
-118.36703108,175.49473570,-84.00514151,84.59597857,148.02674027,-174.63531524
-172.80597813,-166.94248523,82.77248728,112.27489548,-123.79008067,-7.06005211
0.12483652,-1.25432866,0.69086610,-0.61934043,1.77946454

>  <Name>
1uui_lig

>  <RI>
0

>  <Rbt.Current_Directory>
/home/itssahil/PROJECTS/Mol_Feturizer/New_Systems/rnas/1uui

>  <Rbt.Executable>
rbdock ($Id: //depot/dev/client3/rdock/2013.1/src/exe/rbdock.cxx#4 $)

>  <Rbt.Library>
libRbt.so (2013.1, Build901 2013/11/27)

>  <Rbt.Parameter_File>
/export/apps/rDock/src/rDock_2013.1_src/data/scripts/dock_solv.prm

>  <Rbt.Receptor>
prm/pocket_docking_6.prm

>  <SCORE>
-21.9356

>  <SCORE.INTER>
-21.8767

>  <SCORE.INTER.CONST>
1

>  <SCORE.INTER.POLAR>
-3.97741

>  <SCORE.INTER.ROT>
10

>  <SCORE.INTER.SOLV>
5.75963

>  <SCORE.INTER.VDW>
-13.5129

>  <SCORE.INTER.norm>
-0.951159

>  <SCORE.INTRA>
-0.058985

>  <SCORE.INTRA.DIHEDRAL>
1.57287

>  <SCORE.INTRA.DIHEDRAL.0>
23.4151

>  <SCORE.INTRA.POLAR>
0

>  <SCORE.INTRA.POLAR.0>
0

>  <SCORE.INTRA.REPUL>
0

>  <SCORE.INTRA.REPUL.0>
0

>  <SCORE.INTRA.SOLV>
1.30131

>  <SCORE.INTRA.SOLV.lig_0>
-17.3568

>  <SCORE.INTRA.VDW>
-1.49608

>  <SCORE.INTRA.VDW.0>
1.0768

>  <SCORE.INTRA.norm>
-0.00256457

>  <SCORE.RESTR>
0

>  <SCORE.RESTR.CAVITY>
0

>  <SCORE.RESTR.norm>
0

>  <SCORE.SYSTEM>
0

>  <SCORE.SYSTEM.CONST>
0

>  <SCORE.SYSTEM.DIHEDRAL>
0

>  <SCORE.SYSTEM.SOLV>
0

>  <SCORE.SYSTEM.norm>
0

>  <SCORE.heavy>
23

>  <SCORE.norm>
-0.953724

>  <RMSD>
7.344

$$$$
1uui_lig
 OpenBabel11021811413D
libRbt.so/2013.1/901 2013/11/27
 23 24  0  0  0  0  0  0  0  0999 V2000
   -6.0379    0.3368    1.2349 C   0  0  0  0  0  0  0  0  0  0  0  0
   -5.9493    2.1778   -1.0133 O   0  0  0  0  0  0  0  0  0  0  0  0
   -8.0393    4.1052    3.9285 O   0  0  0  0  0  0  0  0  0  0  0  0
   -6.8641    2.4722   -2.0765 C   0  0  0  0  0  0  0  0  0  0  0  0
   -7.1055    5.0096    4.5237 C   0  0  0  0  0  0  0  0  0  0  0  0
   -7.1775   -0.6143    1.4500 N   0  0  0  0  0  0  0  0  0  0  0  0
   -6.3162    1.8934   -3.3819 C   0  0  0  0  0  0  0  0  0  0  0  0
   -6.6948   -1.9303    1.9498 C   0  0  0  0  0  0  0  0  0  0  0  0
   -7.9477   -0.8133    0.1939 C   0  0  0  0  0  0  0  0  0  0  0  0
   -7.1658    2.3711   -4.5638 C   0  0  0  0  0  0  0  0  0  0  0  0
   -5.7396   -2.6088    0.9533 C   0  0  0  0  0  0  0  0  0  0  0  0
   -7.0636   -1.3809   -0.9297 C   0  0  0  0  0  0  0  0  0  0  0  0
   -8.4697    1.6709   -4.5497 N   0  0  0  0  0  0  0  0  0  0  0  0
   -5.7964   -1.9754   -0.4014 N   0  0  0  0  0  0  0  0  0  0  0  0
   -4.7176   -2.1657   -1.2848 C   0  0  0  0  0  0  0  0  0  0  0  0
   -4.1944   -1.1174   -1.9822 N   0  0  0  0  0  0  0  0  0  0  0  0
   -4.2599   -3.4193   -1.5648 N   0  0  0  0  0  0  0  0  0  0  0  0
   -6.4697    2.6603    0.2287 C   0  0  0  0  0  0  0  0  0  0  0  0
   -6.5336    1.7965    1.3561 C   0  0  0  0  0  0  0  0  0  0  0  0
   -7.0562    2.2795    2.5880 C   0  0  0  0  0  0  0  0  0  0  0  0
   -7.5124    3.6218    2.6896 C   0  0  0  0  0  0  0  0  0  0  0  0
   -7.4461    4.4823    1.5624 C   0  0  0  0  0  0  0  0  0  0  0  0
   -6.9258    4.0011    0.3322 C   0  0  0  0  0  0  0  0  0  0  0  0
  2  4  1  0  0  0  0
  3  5  1  0  0  0  0
  4  7  1  0  0  0  0
  6  1  1  0  0  0  0
  7 10  1  0  0  0  0
  8  6  1  0  0  0  0
  8 11  1  0  0  0  0
  9  6  1  0  0  0  0
 10 13  1  0  0  0  0
 11 14  1  0  0  0  0
 12  9  1  0  0  0  0
 14 12  1  0  0  0  0
 14 15  1  0  0  0  0
 15 16  1  0  0  0  0
 15 17  1  0  0  0  0
 18  2  1  0  0  0  0
 18 23  2  0  0  0  0
 19  1  1  0  0  0  0
 19 18  1  0  0  0  0
 20 19  2  0  0  0  0
 21  3  1  0  0  0  0
 21 20  1  0  0  0  0
 22 21  2  0  0  0  0
 22 23  1  0  0  0  0
M  END
>  <CHROM.1>
-177.52502142,-171.62193679,-154.17593488,-73.01707880,146.92653838,-134.46171901
-166.16881950,-159.51717804,129.09385612,-116.40192285,107.88366515,-6.58151525
0.94700474,-0.01043639,-2.49884293,1.27303343,-1.54007005

>  <Name>
1uui_lig

>  <RI>
0

>  <Rbt.Current_Directory>
/home/itssahil/PROJECTS/Mol_Feturizer/New_Systems/rnas/1uui

>  <Rbt.Executable>
rbdock ($Id: //depot/dev/client3/rdock/2013.1/src/exe/rbdock.cxx#4 $)

>  <Rbt.Library>
libRbt.so (2013.1, Build901 2013/11/27)

>  <Rbt.Parameter_File>
/export/apps/rDock/src/rDock_2013.1_src/data/scripts/dock_solv.prm

>  <Rbt.Receptor>
prm/pocket_docking_7.prm

>  <SCORE>
-26.7905

>  <SCORE.INTER>
-21.057

>  <SCORE.INTER.CONST>
1

>  <SCORE.INTER.POLAR>
-3.37818

>  <SCORE.INTER.ROT>
10

>  <SCORE.INTER.SOLV>
5.3456

>  <SCORE.INTER.VDW>
-14.8259

>  <SCORE.INTER.norm>
-0.915522

>  <SCORE.INTRA>
-5.73345

>  <SCORE.INTRA.DIHEDRAL>
-7.50284

>  <SCORE.INTRA.DIHEDRAL.0>
23.4151

>  <SCORE.INTRA.POLAR>
0

>  <SCORE.INTRA.POLAR.0>
0

>  <SCORE.INTRA.REPUL>
0

>  <SCORE.INTRA.REPUL.0>
0

>  <SCORE.INTRA.SOLV>
0.472487

>  <SCORE.INTRA.SOLV.lig_0>
-17.3568

>  <SCORE.INTRA.VDW>
-2.21827

>  <SCORE.INTRA.VDW.0>
1.0768

>  <SCORE.INTRA.norm>
-0.24928

>  <SCORE.RESTR>
0

>  <SCORE.RESTR.CAVITY>
0

>  <SCORE.RESTR.norm>
0

>  <SCORE.SYSTEM>
0

>  <SCORE.SYSTEM.CONST>
0

>  <SCORE.SYSTEM.DIHEDRAL>
0

>  <SCORE.SYSTEM.SOLV>
0

>  <SCORE.SYSTEM.norm>
0

>  <SCORE.heavy>
23

>  <SCORE.norm>
-1.1648

>  <RMSD>
7.368

$$$$
1uui_lig
 OpenBabel11021811413D
libRbt.so/2013.1/901 2013/11/27
 23 24  0  0  0  0  0  0  0  0999 V2000
   -7.4992    1.6897    0.3178 C   0  0  0  0  0  0  0  0  0  0  0  0
   -8.7957   -0.5662   -0.9788 O   0  0  0  0  0  0  0  0  0  0  0  0
   -5.1879   -1.6635    3.2971 O   0  0  0  0  0  0  0  0  0  0  0  0
  -10.0562   -0.1218   -0.4614 C   0  0  0  0  0  0  0  0  0  0  0  0
   -3.9454   -2.1270    2.7629 C   0  0  0  0  0  0  0  0  0  0  0  0
   -6.4543    2.1274   -0.6652 N   0  0  0  0  0  0  0  0  0  0  0  0
  -11.0518    0.0095   -1.6150 C   0  0  0  0  0  0  0  0  0  0  0  0
   -6.4114    3.6104   -0.7824 C   0  0  0  0  0  0  0  0  0  0  0  0
   -6.7020    1.5312   -2.0044 C   0  0  0  0  0  0  0  0  0  0  0  0
  -12.4731    0.1655   -1.0648 C   0  0  0  0  0  0  0  0  0  0  0  0
   -7.7486    4.1870   -1.2779 C   0  0  0  0  0  0  0  0  0  0  0  0
   -8.0763    1.9397   -2.5618 C   0  0  0  0  0  0  0  0  0  0  0  0
  -13.4476    0.0406   -2.1718 N   0  0  0  0  0  0  0  0  0  0  0  0
   -8.6393    3.1302   -1.8519 N   0  0  0  0  0  0  0  0  0  0  0  0
  -10.0201    3.3849   -1.9463 C   0  0  0  0  0  0  0  0  0  0  0  0
  -10.5601    3.8837   -3.0945 N   0  0  0  0  0  0  0  0  0  0  0  0
  -10.8261    3.2667   -0.8526 N   0  0  0  0  0  0  0  0  0  0  0  0
   -7.8931   -0.8388    0.0968 C   0  0  0  0  0  0  0  0  0  0  0  0
   -7.2348    0.2320    0.7610 C   0  0  0  0  0  0  0  0  0  0  0  0
   -6.3344   -0.0443    1.8272 C   0  0  0  0  0  0  0  0  0  0  0  0
   -6.0949   -1.3874    2.2260 C   0  0  0  0  0  0  0  0  0  0  0  0
   -6.7548   -2.4545    1.5617 C   0  0  0  0  0  0  0  0  0  0  0  0
   -7.6527   -2.1800    0.4967 C   0  0  0  0  0  0  0  0  0  0  0  0
  2  4  1  0  0  0  0
  3  5  1  0  0  0  0
  4  7  1  0  0  0  0
  6  1  1  0  0  0  0
  7 10  1  0  0  0  0
  8  6  1  0  0  0  0
  8 11  1  0  0  0  0
  9  6  1  0  0  0  0
 10 13  1  0  0  0  0
 11 14  1  0  0  0  0
 12  9  1  0  0  0  0
 14 12  1  0  0  0  0
 14 15  1  0  0  0  0
 15 16  1  0  0  0  0
 15 17  1  0  0  0  0
 18  2  1  0  0  0  0
 18 23  2  0  0  0  0
 19  1  1  0  0  0  0
 19 18  1  0  0  0  0
 20 19  2  0  0  0  0
 21  3  1  0  0  0  0
 21 20  1  0  0  0  0
 22 21  2  0  0  0  0
 22 23  1  0  0  0  0
M  END
>  <CHROM.1>
-173.59173114,167.01067681,-162.00513549,-169.62003377,60.45522460,94.10977469
15.67890317,171.24748297,-78.20803501,-94.59956294,-102.82374874,-8.32963609
0.81415015,-0.39417891,-0.75550977,-0.36083347,-0.47331311

>  <Name>
1uui_lig

>  <RI>
0

>  <Rbt.Current_Directory>
/home/itssahil/PROJECTS/Mol_Feturizer/New_Systems/rnas/1uui

>  <Rbt.Executable>
rbdock ($Id: //depot/dev/client3/rdock/2013.1/src/exe/rbdock.cxx#4 $)

>  <Rbt.Library>
libRbt.so (2013.1, Build901 2013/11/27)

>  <Rbt.Parameter_File>
/export/apps/rDock/src/rDock_2013.1_src/data/scripts/dock_solv.prm

>  <Rbt.Receptor>
prm/pocket_docking_5.prm

>  <SCORE>
-16.2797

>  <SCORE.INTER>
-7.75071

>  <SCORE.INTER.CONST>
1

>  <SCORE.INTER.POLAR>
-0.738899

>  <SCORE.INTER.ROT>
10

>  <SCORE.INTER.SOLV>
5.03028

>  <SCORE.INTER.VDW>
-14.6476

>  <SCORE.INTER.norm>
-0.336987

>  <SCORE.INTRA>
-8.53942

>  <SCORE.INTRA.DIHEDRAL>
-7.96013

>  <SCORE.INTRA.DIHEDRAL.0>
23.4151

>  <SCORE.INTRA.POLAR>
0

>  <SCORE.INTRA.POLAR.0>
0

>  <SCORE.INTRA.REPUL>
0

>  <SCORE.INTRA.REPUL.0>
0

>  <SCORE.INTRA.SOLV>
1.20529

>  <SCORE.INTRA.SOLV.lig_0>
-17.3568

>  <SCORE.INTRA.VDW>
-5.162

>  <SCORE.INTRA.VDW.0>
1.0768

>  <SCORE.INTRA.norm>
-0.371279

>  <SCORE.RESTR>
0.0103816

>  <SCORE.RESTR.CAVITY>
0.0103816

>  <SCORE.RESTR.norm>
0.000451372

>  <SCORE.SYSTEM>
0

>  <SCORE.SYSTEM.CONST>
0

>  <SCORE.SYSTEM.DIHEDRAL>
0

>  <SCORE.SYSTEM.SOLV>
0

>  <SCORE.SYSTEM.norm>
0

>  <SCORE.heavy>
23

>  <SCORE.norm>
-0.707815

>  <RMSD>
7.381

$$$$
1uui_lig
 OpenBabel11021811413D
libRbt.so/2013.1/901 2013/11/27
 23 24  0  0  0  0  0  0  0  0999 V2000
   -6.7496   -0.0726   -0.9371 C   0  0  0  0  0  0  0  0  0  0  0  0
   -7.2476    1.3683   -3.4124 O   0  0  0  0  0  0  0  0  0  0  0  0
   -3.1769   -2.6233   -3.4253 O   0  0  0  0  0  0  0  0  0  0  0  0
   -6.6848    2.6372   -3.0555 C   0  0  0  0  0  0  0  0  0  0  0  0
   -1.9217   -2.0227   -3.0971 C   0  0  0  0  0  0  0  0  0  0  0  0
   -7.2876   -1.3489   -0.3615 N   0  0  0  0  0  0  0  0  0  0  0  0
   -6.0202    3.2534   -4.2875 C   0  0  0  0  0  0  0  0  0  0  0  0
   -8.4991   -1.0991    0.4658 C   0  0  0  0  0  0  0  0  0  0  0  0
   -6.2578   -2.0358    0.4620 C   0  0  0  0  0  0  0  0  0  0  0  0
   -5.3802    4.5961   -3.9206 C   0  0  0  0  0  0  0  0  0  0  0  0
   -8.2012   -0.1724    1.6568 C   0  0  0  0  0  0  0  0  0  0  0  0
   -5.7839   -1.1533    1.6295 C   0  0  0  0  0  0  0  0  0  0  0  0
   -4.7144    5.1679   -5.1124 N   0  0  0  0  0  0  0  0  0  0  0  0
   -6.7324   -0.0297    1.9055 N   0  0  0  0  0  0  0  0  0  0  0  0
   -6.2736    1.0789    2.6409 C   0  0  0  0  0  0  0  0  0  0  0  0
   -5.1228    1.0051    3.3684 N   0  0  0  0  0  0  0  0  0  0  0  0
   -7.0355    2.2045    2.7515 N   0  0  0  0  0  0  0  0  0  0  0  0
   -6.2293    0.3637   -3.4142 C   0  0  0  0  0  0  0  0  0  0  0  0
   -5.9495   -0.3668   -2.2271 C   0  0  0  0  0  0  0  0  0  0  0  0
   -4.9328   -1.3619   -2.2326 C   0  0  0  0  0  0  0  0  0  0  0  0
   -4.2001   -1.6237   -3.4221 C   0  0  0  0  0  0  0  0  0  0  0  0
   -4.4828   -0.8935   -4.6062 C   0  0  0  0  0  0  0  0  0  0  0  0
   -5.4964    0.1006   -4.6017 C   0  0  0  0  0  0  0  0  0  0  0  0
  2  4  1  0  0  0  0
  3  5  1  0  0  0  0
  4  7  1  0  0  0  0
  6  1  1  0  0  0  0
  7 10  1  0  0  0  0
  8  6  1  0  0  0  0
  8 11  1  0  0  0  0
  9  6  1  0  0  0  0
 10 13  1  0  0  0  0
 11 14  1  0  0  0  0
 12  9  1  0  0  0  0
 14 12  1  0  0  0  0
 14 15  1  0  0  0  0
 15 16  1  0  0  0  0
 15 17  1  0  0  0  0
 18  2  1  0  0  0  0
 18 23  2  0  0  0  0
 19  1  1  0  0  0  0
 19 18  1  0  0  0  0
 20 19  2  0  0  0  0
 21  3  1  0  0  0  0
 21 20  1  0  0  0  0
 22 21  2  0  0  0  0
 22 23  1  0  0  0  0
M  END
>  <CHROM.1>
80.97235847,-178.57723178,-154.87820228,178.72753672,76.76899619,152.10210617
102.64330088,-51.56042636,89.88823697,129.30616266,-91.14900062,-5.83200848
0.36496242,-1.41399257,-2.20874770,1.10830874,-0.72107121

>  <Name>
1uui_lig

>  <RI>
0

>  <Rbt.Current_Directory>
/home/itssahil/PROJECTS/Mol_Feturizer/New_Systems/rnas/1uui

>  <Rbt.Executable>
rbdock ($Id: //depot/dev/client3/rdock/2013.1/src/exe/rbdock.cxx#4 $)

>  <Rbt.Library>
libRbt.so (2013.1, Build901 2013/11/27)

>  <Rbt.Parameter_File>
/export/apps/rDock/src/rDock_2013.1_src/data/scripts/dock_solv.prm

>  <Rbt.Receptor>
prm/pocket_docking_8.prm

>  <SCORE>
-19.521

>  <SCORE.INTER>
-14.9514

>  <SCORE.INTER.CONST>
1

>  <SCORE.INTER.POLAR>
-2.17135

>  <SCORE.INTER.ROT>
10

>  <SCORE.INTER.SOLV>
6.434

>  <SCORE.INTER.VDW>
-15.1411

>  <SCORE.INTER.norm>
-0.650061

>  <SCORE.INTRA>
-4.58199

>  <SCORE.INTRA.DIHEDRAL>
-5.70798

>  <SCORE.INTRA.DIHEDRAL.0>
23.4151

>  <SCORE.INTRA.POLAR>
0

>  <SCORE.INTRA.POLAR.0>
0

>  <SCORE.INTRA.REPUL>
0

>  <SCORE.INTRA.REPUL.0>
0

>  <SCORE.INTRA.SOLV>
-0.109496

>  <SCORE.INTRA.SOLV.lig_0>
-17.3568

>  <SCORE.INTRA.VDW>
-1.67325

>  <SCORE.INTRA.VDW.0>
1.0768

>  <SCORE.INTRA.norm>
-0.199217

>  <SCORE.RESTR>
0.012397

>  <SCORE.RESTR.CAVITY>
0.012397

>  <SCORE.RESTR.norm>
0.000539001

>  <SCORE.SYSTEM>
0

>  <SCORE.SYSTEM.CONST>
0

>  <SCORE.SYSTEM.DIHEDRAL>
0

>  <SCORE.SYSTEM.SOLV>
0

>  <SCORE.SYSTEM.norm>
0

>  <SCORE.heavy>
23

>  <SCORE.norm>
-0.848739

>  <RMSD>
7.384

$$$$
1uui_lig
 OpenBabel11021811413D
libRbt.so/2013.1/901 2013/11/27
 23 24  0  0  0  0  0  0  0  0999 V2000
   -5.4361    0.5272    0.3527 C   0  0  0  0  0  0  0  0  0  0  0  0
   -5.1928    2.4021   -1.8557 O   0  0  0  0  0  0  0  0  0  0  0  0
   -4.4851    4.4086    3.4337 O   0  0  0  0  0  0  0  0  0  0  0  0
   -6.5304    2.6614   -2.3000 C   0  0  0  0  0  0  0  0  0  0  0  0
   -5.7100    4.9881    3.8895 C   0  0  0  0  0  0  0  0  0  0  0  0
   -6.8460    0.2263    0.7663 N   0  0  0  0  0  0  0  0  0  0  0  0
   -6.8187    1.8129   -3.5395 C   0  0  0  0  0  0  0  0  0  0  0  0
   -6.9818    0.2104    2.2482 C   0  0  0  0  0  0  0  0  0  0  0  0
   -7.2947   -1.0788    0.2133 C   0  0  0  0  0  0  0  0  0  0  0  0
   -8.2537    2.0553   -4.0179 C   0  0  0  0  0  0  0  0  0  0  0  0
   -6.0956   -0.8674    2.8954 C   0  0  0  0  0  0  0  0  0  0  0  0
   -6.4032   -2.2359    0.6957 C   0  0  0  0  0  0  0  0  0  0  0  0
   -9.1933    1.8246   -2.8979 N   0  0  0  0  0  0  0  0  0  0  0  0
   -5.5903   -1.8572    1.8932 N   0  0  0  0  0  0  0  0  0  0  0  0
   -4.4546   -2.6251    2.2114 C   0  0  0  0  0  0  0  0  0  0  0  0
   -3.3319   -2.0349    2.7115 N   0  0  0  0  0  0  0  0  0  0  0  0
   -4.4028   -3.9522    1.9023 N   0  0  0  0  0  0  0  0  0  0  0  0
   -5.0118    2.9025   -0.5279 C   0  0  0  0  0  0  0  0  0  0  0  0
   -5.1220    2.0235    0.5841 C   0  0  0  0  0  0  0  0  0  0  0  0
   -4.9457    2.5266    1.9030 C   0  0  0  0  0  0  0  0  0  0  0  0
   -4.6603    3.9041    2.1067 C   0  0  0  0  0  0  0  0  0  0  0  0
   -4.5496    4.7790    0.9942 C   0  0  0  0  0  0  0  0  0  0  0  0
   -4.7265    4.2783   -0.3225 C   0  0  0  0  0  0  0  0  0  0  0  0
  2  4  1  0  0  0  0
  3  5  1  0  0  0  0
  4  7  1  0  0  0  0
  6  1  1  0  0  0  0
  7 10  1  0  0  0  0
  8  6  1  0  0  0  0
  8 11  1  0  0  0  0
  9  6  1  0  0  0  0
 10 13  1  0  0  0  0
 11 14  1  0  0  0  0
 12  9  1  0  0  0  0
 14 12  1  0  0  0  0
 14 15  1  0  0  0  0
 15 16  1  0  0  0  0
 15 17  1  0  0  0  0
 18  2  1  0  0  0  0
 18 23  2  0  0  0  0
 19  1  1  0  0  0  0
 19 18  1  0  0  0  0
 20 19  2  0  0  0  0
 21  3  1  0  0  0  0
 21 20  1  0  0  0  0
 22 21  2  0  0  0  0
 22 23  1  0  0  0  0
M  END
>  <CHROM.1>
-165.13195646,178.98860530,-73.75820118,-53.96416310,-164.19894578,-48.36558121
-110.74110142,-171.29655700,97.82447193,-107.25400728,-97.01748535,-5.77153440
1.11381373,0.57375670,1.10185684,1.09695707,3.01451221

>  <Name>
1uui_lig

>  <RI>
0

>  <Rbt.Current_Directory>
/home/itssahil/PROJECTS/Mol_Feturizer/New_Systems/rnas/1uui

>  <Rbt.Executable>
rbdock ($Id: //depot/dev/client3/rdock/2013.1/src/exe/rbdock.cxx#4 $)

>  <Rbt.Library>
libRbt.so (2013.1, Build901 2013/11/27)

>  <Rbt.Parameter_File>
/export/apps/rDock/src/rDock_2013.1_src/data/scripts/dock_solv.prm

>  <Rbt.Receptor>
prm/pocket_docking_8.prm

>  <SCORE>
-18.1614

>  <SCORE.INTER>
-12.3065

>  <SCORE.INTER.CONST>
1

>  <SCORE.INTER.POLAR>
-1.81582

>  <SCORE.INTER.ROT>
10

>  <SCORE.INTER.SOLV>
5.75973

>  <SCORE.INTER.VDW>
-14.3382

>  <SCORE.INTER.norm>
-0.535067

>  <SCORE.INTRA>
-5.85484

>  <SCORE.INTRA.DIHEDRAL>
-7.30129

>  <SCORE.INTRA.DIHEDRAL.0>
23.4151

>  <SCORE.INTRA.POLAR>
0

>  <SCORE.INTRA.POLAR.0>
0

>  <SCORE.INTRA.REPUL>
0

>  <SCORE.INTRA.REPUL.0>
0

>  <SCORE.INTRA.SOLV>
0.20841

>  <SCORE.INTRA.SOLV.lig_0>
-17.3568

>  <SCORE.INTRA.VDW>
-2.30841

>  <SCORE.INTRA.VDW.0>
1.0768

>  <SCORE.INTRA.norm>
-0.254558

>  <SCORE.RESTR>
0

>  <SCORE.RESTR.CAVITY>
0

>  <SCORE.RESTR.norm>
0

>  <SCORE.SYSTEM>
0

>  <SCORE.SYSTEM.CONST>
0

>  <SCORE.SYSTEM.DIHEDRAL>
0

>  <SCORE.SYSTEM.SOLV>
0

>  <SCORE.SYSTEM.norm>
0

>  <SCORE.heavy>
23

>  <SCORE.norm>
-0.789625

>  <RMSD>
7.412

$$$$
1uui_lig
 OpenBabel11021811413D
libRbt.so/2013.1/901 2013/11/27
 23 24  0  0  0  0  0  0  0  0999 V2000
  -15.0616   -1.8379    0.2334 C   0  0  0  0  0  0  0  0  0  0  0  0
  -14.4736   -2.0734    3.0707 O   0  0  0  0  0  0  0  0  0  0  0  0
  -19.3963   -4.2411    1.1806 O   0  0  0  0  0  0  0  0  0  0  0  0
  -14.7296   -1.1102    4.1006 C   0  0  0  0  0  0  0  0  0  0  0  0
  -19.1530   -5.4946    0.5374 C   0  0  0  0  0  0  0  0  0  0  0  0
  -15.8179   -0.9420   -0.7019 N   0  0  0  0  0  0  0  0  0  0  0  0
  -13.4121   -0.7554    4.7917 C   0  0  0  0  0  0  0  0  0  0  0  0
  -15.2148   -0.9502   -2.0624 C   0  0  0  0  0  0  0  0  0  0  0  0
  -15.8583    0.4518   -0.1859 C   0  0  0  0  0  0  0  0  0  0  0  0
  -13.6709    0.2234    5.9415 C   0  0  0  0  0  0  0  0  0  0  0  0
  -13.7619   -0.4453   -2.0505 C   0  0  0  0  0  0  0  0  0  0  0  0
  -14.4450    1.0338   -0.0128 C   0  0  0  0  0  0  0  0  0  0  0  0
  -12.4017    0.4979    6.6516 N   0  0  0  0  0  0  0  0  0  0  0  0
  -13.4191    0.2533   -0.7721 N   0  0  0  0  0  0  0  0  0  0  0  0
  -12.0645    0.3874   -0.4147 C   0  0  0  0  0  0  0  0  0  0  0  0
  -11.1283    0.7279   -1.3456 N   0  0  0  0  0  0  0  0  0  0  0  0
  -11.6379    0.0500    0.8358 N   0  0  0  0  0  0  0  0  0  0  0  0
  -15.7064   -2.6200    2.5935 C   0  0  0  0  0  0  0  0  0  0  0  0
  -16.0379   -2.5282    1.2141 C   0  0  0  0  0  0  0  0  0  0  0  0
  -17.2671   -3.0692    0.7449 C   0  0  0  0  0  0  0  0  0  0  0  0
  -18.1599   -3.6993    1.6539 C   0  0  0  0  0  0  0  0  0  0  0  0
  -17.8255   -3.7905    3.0305 C   0  0  0  0  0  0  0  0  0  0  0  0
  -16.5996   -3.2499    3.5001 C   0  0  0  0  0  0  0  0  0  0  0  0
  2  4  1  0  0  0  0
  3  5  1  0  0  0  0
  4  7  1  0  0  0  0
  6  1  1  0  0  0  0
  7 10  1  0  0  0  0
  8  6  1  0  0  0  0
  8 11  1  0  0  0  0
  9  6  1  0  0  0  0
 10 13  1  0  0  0  0
 11 14  1  0  0  0  0
 12  9  1  0  0  0  0
 14 12  1  0  0  0  0
 14 15  1  0  0  0  0
 15 16  1  0  0  0  0
 15 17  1  0  0  0  0
 18  2  1  0  0  0  0
 18 23  2  0  0  0  0
 19  1  1  0  0  0  0
 19 18  1  0  0  0  0
 20 19  2  0  0  0  0
 21  3  1  0  0  0  0
 21 20  1  0  0  0  0
 22 21  2  0  0  0  0
 22 23  1  0  0  0  0
M  END
>  <CHROM.1>
168.40338530,-177.30853865,-144.05450799,176.73397761,-178.72048787,42.44017170
-46.61194519,101.29098476,122.81711229,-136.42543888,77.79873421,-15.02242496
-1.39452837,1.43272582,3.05808884,0.65289855,1.65857040

>  <Name>
1uui_lig

>  <RI>
0

>  <Rbt.Current_Directory>
/home/itssahil/PROJECTS/Mol_Feturizer/New_Systems/rnas/1uui

>  <Rbt.Executable>
rbdock ($Id: //depot/dev/client3/rdock/2013.1/src/exe/rbdock.cxx#4 $)

>  <Rbt.Library>
libRbt.so (2013.1, Build901 2013/11/27)

>  <Rbt.Parameter_File>
/export/apps/rDock/src/rDock_2013.1_src/data/scripts/dock_solv.prm

>  <Rbt.Receptor>
prm/pocket_docking_8.prm

>  <SCORE>
-22.9372

>  <SCORE.INTER>
-17.0504

>  <SCORE.INTER.CONST>
1

>  <SCORE.INTER.POLAR>
-1.8546

>  <SCORE.INTER.ROT>
10

>  <SCORE.INTER.SOLV>
5.31793

>  <SCORE.INTER.VDW>
-17.2242

>  <SCORE.INTER.norm>
-0.74132

>  <SCORE.INTRA>
-5.93977

>  <SCORE.INTRA.DIHEDRAL>
-8.21323

>  <SCORE.INTRA.DIHEDRAL.0>
23.4151

>  <SCORE.INTRA.POLAR>
0

>  <SCORE.INTRA.POLAR.0>
0

>  <SCORE.INTRA.REPUL>
0

>  <SCORE.INTRA.REPUL.0>
0

>  <SCORE.INTRA.SOLV>
-0.0135558

>  <SCORE.INTRA.SOLV.lig_0>
-17.3568

>  <SCORE.INTRA.VDW>
-1.82638

>  <SCORE.INTRA.VDW.0>
1.0768

>  <SCORE.INTRA.norm>
-0.258251

>  <SCORE.RESTR>
0.0528994

>  <SCORE.RESTR.CAVITY>
0.0528994

>  <SCORE.RESTR.norm>
0.00229998

>  <SCORE.SYSTEM>
0

>  <SCORE.SYSTEM.CONST>
0

>  <SCORE.SYSTEM.DIHEDRAL>
0

>  <SCORE.SYSTEM.SOLV>
0

>  <SCORE.SYSTEM.norm>
0

>  <SCORE.heavy>
23

>  <SCORE.norm>
-0.997271

>  <RMSD>
7.438

$$$$
1uui_lig
 OpenBabel11021811413D
libRbt.so/2013.1/901 2013/11/27
 23 24  0  0  0  0  0  0  0  0999 V2000
   -5.3828    1.7522    1.5940 C   0  0  0  0  0  0  0  0  0  0  0  0
   -5.2800    0.7422   -1.1301 O   0  0  0  0  0  0  0  0  0  0  0  0
   -6.5413    6.2508   -0.3763 O   0  0  0  0  0  0  0  0  0  0  0  0
   -4.0537    0.6125   -1.8604 C   0  0  0  0  0  0  0  0  0  0  0  0
   -7.9031    6.3735    0.0414 C   0  0  0  0  0  0  0  0  0  0  0  0
   -4.1013    2.1532    2.2622 N   0  0  0  0  0  0  0  0  0  0  0  0
   -4.3524    0.6971   -3.3580 C   0  0  0  0  0  0  0  0  0  0  0  0
   -2.9289    1.5060    1.6131 C   0  0  0  0  0  0  0  0  0  0  0  0
   -4.1237    1.8036    3.7071 C   0  0  0  0  0  0  0  0  0  0  0  0
   -5.1674   -0.5228   -3.7992 C   0  0  0  0  0  0  0  0  0  0  0  0
   -3.0027   -0.0284    1.6913 C   0  0  0  0  0  0  0  0  0  0  0  0
   -4.3165    0.2927    3.9223 C   0  0  0  0  0  0  0  0  0  0  0  0
   -5.8270   -0.2347   -5.0924 N   0  0  0  0  0  0  0  0  0  0  0  0
   -4.0217   -0.4932    2.6839 N   0  0  0  0  0  0  0  0  0  0  0  0
   -4.5228   -1.8040    2.5781 C   0  0  0  0  0  0  0  0  0  0  0  0
   -5.8146   -2.0285    2.2041 N   0  0  0  0  0  0  0  0  0  0  0  0
   -3.7717   -2.8706    2.9756 N   0  0  0  0  0  0  0  0  0  0  0  0
   -5.5925    2.1249   -0.9387 C   0  0  0  0  0  0  0  0  0  0  0  0
   -5.6550    2.6642    0.3753 C   0  0  0  0  0  0  0  0  0  0  0  0
   -5.9706    4.0389    0.5609 C   0  0  0  0  0  0  0  0  0  0  0  0
   -6.2223    4.8692   -0.5650 C   0  0  0  0  0  0  0  0  0  0  0  0
   -6.1579    4.3280   -1.8758 C   0  0  0  0  0  0  0  0  0  0  0  0
   -5.8441    2.9560   -2.0622 C   0  0  0  0  0  0  0  0  0  0  0  0
  2  4  1  0  0  0  0
  3  5  1  0  0  0  0
  4  7  1  0  0  0  0
  6  1  1  0  0  0  0
  7 10  1  0  0  0  0
  8  6  1  0  0  0  0
  8 11  1  0  0  0  0
  9  6  1  0  0  0  0
 10 13  1  0  0  0  0
 11 14  1  0  0  0  0
 12  9  1  0  0  0  0
 14 12  1  0  0  0  0
 14 15  1  0  0  0  0
 15 16  1  0  0  0  0
 15 17  1  0  0  0  0
 18  2  1  0  0  0  0
 18 23  2  0  0  0  0
 19  1  1  0  0  0  0
 19 18  1  0  0  0  0
 20 19  2  0  0  0  0
 21  3  1  0  0  0  0
 21 20  1  0  0  0  0
 22 21  2  0  0  0  0
 22 23  1  0  0  0  0
M  END
>  <CHROM.1>
-85.01571436,-66.92719657,-85.19836801,161.34449143,-57.85364482,-110.84211921
-119.10687241,-128.73981135,-117.17737812,111.96163185,-77.32364706,-5.06871569
1.46437946,0.21095868,0.25717723,-1.24327253,1.11086608

>  <Name>
1uui_lig

>  <RI>
0

>  <Rbt.Current_Directory>
/home/itssahil/PROJECTS/Mol_Feturizer/New_Systems/rnas/1uui

>  <Rbt.Executable>
rbdock ($Id: //depot/dev/client3/rdock/2013.1/src/exe/rbdock.cxx#4 $)

>  <Rbt.Library>
libRbt.so (2013.1, Build901 2013/11/27)

>  <Rbt.Parameter_File>
/export/apps/rDock/src/rDock_2013.1_src/data/scripts/dock_solv.prm

>  <Rbt.Receptor>
prm/pocket_docking_7.prm

>  <SCORE>
-23.9344

>  <SCORE.INTER>
-18.684

>  <SCORE.INTER.CONST>
1

>  <SCORE.INTER.POLAR>
-3.99357

>  <SCORE.INTER.ROT>
10

>  <SCORE.INTER.SOLV>
5.77556

>  <SCORE.INTER.VDW>
-11.336

>  <SCORE.INTER.norm>
-0.812348

>  <SCORE.INTRA>
-5.25038

>  <SCORE.INTRA.DIHEDRAL>
-5.27677

>  <SCORE.INTRA.DIHEDRAL.0>
23.4151

>  <SCORE.INTRA.POLAR>
0

>  <SCORE.INTRA.POLAR.0>
0

>  <SCORE.INTRA.REPUL>
0

>  <SCORE.INTRA.REPUL.0>
0

>  <SCORE.INTRA.SOLV>
0.186926

>  <SCORE.INTRA.SOLV.lig_0>
-17.3568

>  <SCORE.INTRA.VDW>
-2.70546

>  <SCORE.INTRA.VDW.0>
1.0768

>  <SCORE.INTRA.norm>
-0.228278

>  <SCORE.RESTR>
0

>  <SCORE.RESTR.CAVITY>
0

>  <SCORE.RESTR.norm>
0

>  <SCORE.SYSTEM>
0

>  <SCORE.SYSTEM.CONST>
0

>  <SCORE.SYSTEM.DIHEDRAL>
0

>  <SCORE.SYSTEM.SOLV>
0

>  <SCORE.SYSTEM.norm>
0

>  <SCORE.heavy>
23

>  <SCORE.norm>
-1.04063

>  <RMSD>
7.446

$$$$
1uui_lig
 OpenBabel11021811413D
libRbt.so/2013.1/901 2013/11/27
 23 24  0  0  0  0  0  0  0  0999 V2000
  -10.0144    4.0688    0.1532 C   0  0  0  0  0  0  0  0  0  0  0  0
  -12.6059    2.7532    0.2252 O   0  0  0  0  0  0  0  0  0  0  0  0
   -8.0879   -0.1535    2.1337 O   0  0  0  0  0  0  0  0  0  0  0  0
  -13.5199    1.8610   -0.4248 C   0  0  0  0  0  0  0  0  0  0  0  0
   -7.6796   -1.1004    1.1434 C   0  0  0  0  0  0  0  0  0  0  0  0
   -8.7560    4.1725   -0.6561 N   0  0  0  0  0  0  0  0  0  0  0  0
  -13.0583    1.6346   -1.8652 C   0  0  0  0  0  0  0  0  0  0  0  0
   -8.3674    5.5931   -0.8696 C   0  0  0  0  0  0  0  0  0  0  0  0
   -8.9135    3.4985   -1.9719 C   0  0  0  0  0  0  0  0  0  0  0  0
  -13.2568    2.9130   -2.6858 C   0  0  0  0  0  0  0  0  0  0  0  0
   -9.4473    6.3757   -1.6360 C   0  0  0  0  0  0  0  0  0  0  0  0
  -10.0566    4.1185   -2.7936 C   0  0  0  0  0  0  0  0  0  0  0  0
  -12.8900    2.6563   -4.0965 N   0  0  0  0  0  0  0  0  0  0  0  0
  -10.4472    5.4693   -2.2827 N   0  0  0  0  0  0  0  0  0  0  0  0
  -11.7043    5.9913   -2.6402 C   0  0  0  0  0  0  0  0  0  0  0  0
  -11.8782    6.6388   -3.8274 N   0  0  0  0  0  0  0  0  0  0  0  0
  -12.7402    5.9806   -1.7534 N   0  0  0  0  0  0  0  0  0  0  0  0
  -11.4715    2.0273    0.7071 C   0  0  0  0  0  0  0  0  0  0  0  0
  -10.1834    2.6289    0.6911 C   0  0  0  0  0  0  0  0  0  0  0  0
   -9.0575    1.9013    1.1672 C   0  0  0  0  0  0  0  0  0  0  0  0
   -9.2215    0.5772    1.6571 C   0  0  0  0  0  0  0  0  0  0  0  0
  -10.5091   -0.0204    1.6729 C   0  0  0  0  0  0  0  0  0  0  0  0
  -11.6334    0.7043    1.1970 C   0  0  0  0  0  0  0  0  0  0  0  0
  2  4  1  0  0  0  0
  3  5  1  0  0  0  0
  4  7  1  0  0  0  0
  6  1  1  0  0  0  0
  7 10  1  0  0  0  0
  8  6  1  0  0  0  0
  8 11  1  0  0  0  0
  9  6  1  0  0  0  0
 10 13  1  0  0  0  0
 11 14  1  0  0  0  0
 12  9  1  0  0  0  0
 14 12  1  0  0  0  0
 14 15  1  0  0  0  0
 15 16  1  0  0  0  0
 15 17  1  0  0  0  0
 18  2  1  0  0  0  0
 18 23  2  0  0  0  0
 19  1  1  0  0  0  0
 19 18  1  0  0  0  0
 20 19  2  0  0  0  0
 21  3  1  0  0  0  0
 21 20  1  0  0  0  0
 22 21  2  0  0  0  0
 22 23  1  0  0  0  0
M  END
>  <CHROM.1>
-82.93949168,-69.86620713,-164.34043330,-176.34023097,-177.85314288,84.47402034
-83.84914981,42.79588355,144.80055847,-140.04830937,-102.63439858,-10.70135713
3.09651028,-0.80353072,-1.20105504,-0.38598109,-0.55486907

>  <Name>
1uui_lig

>  <RI>
0

>  <Rbt.Current_Directory>
/home/itssahil/PROJECTS/Mol_Feturizer/New_Systems/rnas/1uui

>  <Rbt.Executable>
rbdock ($Id: //depot/dev/client3/rdock/2013.1/src/exe/rbdock.cxx#4 $)

>  <Rbt.Library>
libRbt.so (2013.1, Build901 2013/11/27)

>  <Rbt.Parameter_File>
/export/apps/rDock/src/rDock_2013.1_src/data/scripts/dock_solv.prm

>  <Rbt.Receptor>
prm/pocket_docking_6.prm

>  <SCORE>
-12.9809

>  <SCORE.INTER>
-6.49494

>  <SCORE.INTER.CONST>
1

>  <SCORE.INTER.POLAR>
-2.00565

>  <SCORE.INTER.ROT>
10

>  <SCORE.INTER.SOLV>
4.05792

>  <SCORE.INTER.VDW>
-9.26376

>  <SCORE.INTER.norm>
-0.282389

>  <SCORE.INTRA>
-6.48595

>  <SCORE.INTRA.DIHEDRAL>
-9.6071

>  <SCORE.INTRA.DIHEDRAL.0>
23.4151

>  <SCORE.INTRA.POLAR>
0

>  <SCORE.INTRA.POLAR.0>
0

>  <SCORE.INTRA.REPUL>
0

>  <SCORE.INTRA.REPUL.0>
0

>  <SCORE.INTRA.SOLV>
1.23528

>  <SCORE.INTRA.SOLV.lig_0>
-17.3568

>  <SCORE.INTRA.VDW>
-2.30004

>  <SCORE.INTRA.VDW.0>
1.0768

>  <SCORE.INTRA.norm>
-0.281998

>  <SCORE.RESTR>
0

>  <SCORE.RESTR.CAVITY>
0

>  <SCORE.RESTR.norm>
0

>  <SCORE.SYSTEM>
0

>  <SCORE.SYSTEM.CONST>
0

>  <SCORE.SYSTEM.DIHEDRAL>
0

>  <SCORE.SYSTEM.SOLV>
0

>  <SCORE.SYSTEM.norm>
0

>  <SCORE.heavy>
23

>  <SCORE.norm>
-0.564386

>  <RMSD>
7.468

$$$$
1uui_lig
 OpenBabel11021811413D
libRbt.so/2013.1/901 2013/11/27
 23 24  0  0  0  0  0  0  0  0999 V2000
   -6.7483    2.6509   -1.3632 C   0  0  0  0  0  0  0  0  0  0  0  0
   -7.2868    2.0257    1.4243 O   0  0  0  0  0  0  0  0  0  0  0  0
   -7.1060    7.5198   -0.0876 O   0  0  0  0  0  0  0  0  0  0  0  0
   -6.3176    1.7707    2.4489 C   0  0  0  0  0  0  0  0  0  0  0  0
   -6.0146    8.1599    0.5781 C   0  0  0  0  0  0  0  0  0  0  0  0
   -7.7560    1.5533   -1.1921 N   0  0  0  0  0  0  0  0  0  0  0  0
   -6.2480    0.2649    2.7075 C   0  0  0  0  0  0  0  0  0  0  0  0
   -7.1998    0.2395   -1.6154 C   0  0  0  0  0  0  0  0  0  0  0  0
   -8.9918    1.8414   -1.9669 C   0  0  0  0  0  0  0  0  0  0  0  0
   -4.9788   -0.0728    3.4963 C   0  0  0  0  0  0  0  0  0  0  0  0
   -6.7966    0.2370   -3.0998 C   0  0  0  0  0  0  0  0  0  0  0  0
   -8.6986    1.9840   -3.4702 C   0  0  0  0  0  0  0  0  0  0  0  0
   -4.7699   -1.5380    3.4920 N   0  0  0  0  0  0  0  0  0  0  0  0
   -7.3704    1.4036   -3.8410 N   0  0  0  0  0  0  0  0  0  0  0  0
   -6.7746    1.7959   -5.0542 C   0  0  0  0  0  0  0  0  0  0  0  0
   -7.5409    2.1603   -6.1214 N   0  0  0  0  0  0  0  0  0  0  0  0
   -5.4268    1.6920   -5.2333 N   0  0  0  0  0  0  0  0  0  0  0  0
   -7.2447    3.4034    1.0419 C   0  0  0  0  0  0  0  0  0  0  0  0
   -6.9841    3.7582   -0.3100 C   0  0  0  0  0  0  0  0  0  0  0  0
   -6.9388    5.1298   -0.6847 C   0  0  0  0  0  0  0  0  0  0  0  0
   -7.1537    6.1411    0.2907 C   0  0  0  0  0  0  0  0  0  0  0  0
   -7.4150    5.7837    1.6395 C   0  0  0  0  0  0  0  0  0  0  0  0
   -7.4594    4.4152    2.0149 C   0  0  0  0  0  0  0  0  0  0  0  0
  2  4  1  0  0  0  0
  3  5  1  0  0  0  0
  4  7  1  0  0  0  0
  6  1  1  0  0  0  0
  7 10  1  0  0  0  0
  8  6  1  0  0  0  0
  8 11  1  0  0  0  0
  9  6  1  0  0  0  0
 10 13  1  0  0  0  0
 11 14  1  0  0  0  0
 12  9  1  0  0  0  0
 14 12  1  0  0  0  0
 14 15  1  0  0  0  0
 15 16  1  0  0  0  0
 15 17  1  0  0  0  0
 18  2  1  0  0  0  0
 18 23  2  0  0  0  0
 19  1  1  0  0  0  0
 19 18  1  0  0  0  0
 20 19  2  0  0  0  0
 21  3  1  0  0  0  0
 21 20  1  0  0  0  0
 22 21  2  0  0  0  0
 22 23  1  0  0  0  0
M  END
>  <CHROM.1>
-172.43658570,164.48541306,-150.04976675,-168.00814811,71.57496172,138.63048213
66.10513844,-56.29796481,121.81256499,44.10478982,-115.83529065,-6.89289241
2.64494767,-0.67284810,2.35789401,1.37548682,-2.47718132

>  <Name>
1uui_lig

>  <RI>
0

>  <Rbt.Current_Directory>
/home/itssahil/PROJECTS/Mol_Feturizer/New_Systems/rnas/1uui

>  <Rbt.Executable>
rbdock ($Id: //depot/dev/client3/rdock/2013.1/src/exe/rbdock.cxx#4 $)

>  <Rbt.Library>
libRbt.so (2013.1, Build901 2013/11/27)

>  <Rbt.Parameter_File>
/export/apps/rDock/src/rDock_2013.1_src/data/scripts/dock_solv.prm

>  <Rbt.Receptor>
prm/pocket_docking_8.prm

>  <SCORE>
-28.151

>  <SCORE.INTER>
-20.1669

>  <SCORE.INTER.CONST>
1

>  <SCORE.INTER.POLAR>
-3.92979

>  <SCORE.INTER.ROT>
10

>  <SCORE.INTER.SOLV>
5.52755

>  <SCORE.INTER.VDW>
-12.4545

>  <SCORE.INTER.norm>
-0.876821

>  <SCORE.INTRA>
-7.98413

>  <SCORE.INTRA.DIHEDRAL>
-8.15708

>  <SCORE.INTRA.DIHEDRAL.0>
23.4151

>  <SCORE.INTRA.POLAR>
-0.743221

>  <SCORE.INTRA.POLAR.0>
0

>  <SCORE.INTRA.REPUL>
0

>  <SCORE.INTRA.REPUL.0>
0

>  <SCORE.INTRA.SOLV>
0.237992

>  <SCORE.INTRA.SOLV.lig_0>
-17.3568

>  <SCORE.INTRA.VDW>
-1.49764

>  <SCORE.INTRA.VDW.0>
1.0768

>  <SCORE.INTRA.norm>
-0.347136

>  <SCORE.RESTR>
0

>  <SCORE.RESTR.CAVITY>
0

>  <SCORE.RESTR.norm>
0

>  <SCORE.SYSTEM>
0

>  <SCORE.SYSTEM.CONST>
0

>  <SCORE.SYSTEM.DIHEDRAL>
0

>  <SCORE.SYSTEM.SOLV>
0

>  <SCORE.SYSTEM.norm>
0

>  <SCORE.heavy>
23

>  <SCORE.norm>
-1.22396

>  <RMSD>
7.490

$$$$
1uui_lig
 OpenBabel11021811413D
libRbt.so/2013.1/901 2013/11/27
 23 24  0  0  0  0  0  0  0  0999 V2000
   -5.9567   -1.5578    1.0106 C   0  0  0  0  0  0  0  0  0  0  0  0
   -4.5410    0.7812    1.9986 O   0  0  0  0  0  0  0  0  0  0  0  0
  -10.2393    0.8465    2.1687 O   0  0  0  0  0  0  0  0  0  0  0  0
   -4.0063    1.2772    3.2324 C   0  0  0  0  0  0  0  0  0  0  0  0
  -10.7522    1.0225    0.8458 C   0  0  0  0  0  0  0  0  0  0  0  0
   -5.5243   -1.2988   -0.4020 N   0  0  0  0  0  0  0  0  0  0  0  0
   -2.4791    1.2170    3.1753 C   0  0  0  0  0  0  0  0  0  0  0  0
   -5.2303   -2.5699   -1.1178 C   0  0  0  0  0  0  0  0  0  0  0  0
   -4.3249   -0.4208   -0.4378 C   0  0  0  0  0  0  0  0  0  0  0  0
   -1.8797    2.0242    4.3313 C   0  0  0  0  0  0  0  0  0  0  0  0
   -4.0913   -3.3571   -0.4479 C   0  0  0  0  0  0  0  0  0  0  0  0
   -3.1385   -1.0503    0.3121 C   0  0  0  0  0  0  0  0  0  0  0  0
   -2.1764    1.3462    5.6130 N   0  0  0  0  0  0  0  0  0  0  0  0
   -3.3253   -2.5191    0.5271 N   0  0  0  0  0  0  0  0  0  0  0  0
   -2.5618   -3.1609    1.5199 C   0  0  0  0  0  0  0  0  0  0  0  0
   -1.2159   -3.3192    1.3707 N   0  0  0  0  0  0  0  0  0  0  0  0
   -3.1670   -3.7563    2.5871 N   0  0  0  0  0  0  0  0  0  0  0  0
   -5.9706    0.7938    2.0438 C   0  0  0  0  0  0  0  0  0  0  0  0
   -6.7066   -0.3271    1.5712 C   0  0  0  0  0  0  0  0  0  0  0  0
   -8.1284   -0.3082    1.6140 C   0  0  0  0  0  0  0  0  0  0  0  0
   -8.8095    0.8285    2.1281 C   0  0  0  0  0  0  0  0  0  0  0  0
   -8.0719    1.9456    2.6005 C   0  0  0  0  0  0  0  0  0  0  0  0
   -6.6529    1.9284    2.5573 C   0  0  0  0  0  0  0  0  0  0  0  0
  2  4  1  0  0  0  0
  3  5  1  0  0  0  0
  4  7  1  0  0  0  0
  6  1  1  0  0  0  0
  7 10  1  0  0  0  0
  8  6  1  0  0  0  0
  8 11  1  0  0  0  0
  9  6  1  0  0  0  0
 10 13  1  0  0  0  0
 11 14  1  0  0  0  0
 12  9  1  0  0  0  0
 14 12  1  0  0  0  0
 14 15  1  0  0  0  0
 15 16  1  0  0  0  0
 15 17  1  0  0  0  0
 18  2  1  0  0  0  0
 18 23  2  0  0  0  0
 19  1  1  0  0  0  0
 19 18  1  0  0  0  0
 20 19  2  0  0  0  0
 21  3  1  0  0  0  0
 21 20  1  0  0  0  0
 22 21  2  0  0  0  0
 22 23  1  0  0  0  0
M  END
>  <CHROM.1>
178.40894379,167.21118790,-160.57439229,68.23308493,28.69352311,99.36362023
-127.68624917,57.16656305,-135.55007887,-79.88283043,-73.57239095,-5.10263049
-0.44794868,1.71706262,2.84894082,-0.28523406,0.71620592

>  <Name>
1uui_lig

>  <RI>
0

>  <Rbt.Current_Directory>
/home/itssahil/PROJECTS/Mol_Feturizer/New_Systems/rnas/1uui

>  <Rbt.Executable>
rbdock ($Id: //depot/dev/client3/rdock/2013.1/src/exe/rbdock.cxx#4 $)

>  <Rbt.Library>
libRbt.so (2013.1, Build901 2013/11/27)

>  <Rbt.Parameter_File>
/export/apps/rDock/src/rDock_2013.1_src/data/scripts/dock_solv.prm

>  <Rbt.Receptor>
prm/pocket_docking_6.prm

>  <SCORE>
-27.6284

>  <SCORE.INTER>
-22.8045

>  <SCORE.INTER.CONST>
1

>  <SCORE.INTER.POLAR>
-3.32046

>  <SCORE.INTER.ROT>
10

>  <SCORE.INTER.SOLV>
6.78445

>  <SCORE.INTER.VDW>
-16.663

>  <SCORE.INTER.norm>
-0.9915

>  <SCORE.INTRA>
-4.82466

>  <SCORE.INTRA.DIHEDRAL>
-8.67984

>  <SCORE.INTRA.DIHEDRAL.0>
23.4151

>  <SCORE.INTRA.POLAR>
0

>  <SCORE.INTRA.POLAR.0>
0

>  <SCORE.INTRA.REPUL>
0.0349135

>  <SCORE.INTRA.REPUL.0>
0

>  <SCORE.INTRA.SOLV>
0.394006

>  <SCORE.INTRA.SOLV.lig_0>
-17.3568

>  <SCORE.INTRA.VDW>
-0.856316

>  <SCORE.INTRA.VDW.0>
1.0768

>  <SCORE.INTRA.norm>
-0.209768

>  <SCORE.RESTR>
0.000746135

>  <SCORE.RESTR.CAVITY>
0.000746135

>  <SCORE.RESTR.norm>
3.24407e-05

>  <SCORE.SYSTEM>
0

>  <SCORE.SYSTEM.CONST>
0

>  <SCORE.SYSTEM.DIHEDRAL>
0

>  <SCORE.SYSTEM.SOLV>
0

>  <SCORE.SYSTEM.norm>
0

>  <SCORE.heavy>
23

>  <SCORE.norm>
-1.20124

>  <RMSD>
7.522

$$$$
1uui_lig
 OpenBabel11021811413D
libRbt.so/2013.1/901 2013/11/27
 23 24  0  0  0  0  0  0  0  0999 V2000
   -6.2531    1.7077    2.8769 C   0  0  0  0  0  0  0  0  0  0  0  0
   -6.5816    3.3398    0.4937 O   0  0  0  0  0  0  0  0  0  0  0  0
   -8.2226    5.5520    5.4854 O   0  0  0  0  0  0  0  0  0  0  0  0
   -7.5090    3.7137   -0.5330 C   0  0  0  0  0  0  0  0  0  0  0  0
   -9.3274    4.8026    5.9972 C   0  0  0  0  0  0  0  0  0  0  0  0
   -4.7570    1.7693    2.9623 N   0  0  0  0  0  0  0  0  0  0  0  0
   -7.0166    3.1678   -1.8742 C   0  0  0  0  0  0  0  0  0  0  0  0
   -4.1332    1.6159    1.6199 C   0  0  0  0  0  0  0  0  0  0  0  0
   -4.2333    0.7192    3.8753 C   0  0  0  0  0  0  0  0  0  0  0  0
   -7.8398    3.7687   -3.0181 C   0  0  0  0  0  0  0  0  0  0  0  0
   -4.4802    0.2629    0.9758 C   0  0  0  0  0  0  0  0  0  0  0  0
   -4.6222   -0.6911    3.3998 C   0  0  0  0  0  0  0  0  0  0  0  0
   -9.2595    3.3812   -2.8614 N   0  0  0  0  0  0  0  0  0  0  0  0
   -5.0511   -0.7025    1.9666 N   0  0  0  0  0  0  0  0  0  0  0  0
   -5.8071   -1.7915    1.4943 C   0  0  0  0  0  0  0  0  0  0  0  0
   -5.3612   -2.5503    0.4530 N   0  0  0  0  0  0  0  0  0  0  0  0
   -7.0603   -2.0300    1.9761 N   0  0  0  0  0  0  0  0  0  0  0  0
   -6.9890    3.8942    1.7478 C   0  0  0  0  0  0  0  0  0  0  0  0
   -6.8485    3.1334    2.9405 C   0  0  0  0  0  0  0  0  0  0  0  0
   -7.2593    3.6872    4.1848 C   0  0  0  0  0  0  0  0  0  0  0  0
   -7.8084    4.9974    4.2336 C   0  0  0  0  0  0  0  0  0  0  0  0
   -7.9463    5.7551    3.0411 C   0  0  0  0  0  0  0  0  0  0  0  0
   -7.5376    5.2030    1.7985 C   0  0  0  0  0  0  0  0  0  0  0  0
  2  4  1  0  0  0  0
  3  5  1  0  0  0  0
  4  7  1  0  0  0  0
  6  1  1  0  0  0  0
  7 10  1  0  0  0  0
  8  6  1  0  0  0  0
  8 11  1  0  0  0  0
  9  6  1  0  0  0  0
 10 13  1  0  0  0  0
 11 14  1  0  0  0  0
 12  9  1  0  0  0  0
 14 12  1  0  0  0  0
 14 15  1  0  0  0  0
 15 16  1  0  0  0  0
 15 17  1  0  0  0  0
 18  2  1  0  0  0  0
 18 23  2  0  0  0  0
 19  1  1  0  0  0  0
 19 18  1  0  0  0  0
 20 19  2  0  0  0  0
 21  3  1  0  0  0  0
 21 20  1  0  0  0  0
 22 21  2  0  0  0  0
 22 23  1  0  0  0  0
M  END
>  <CHROM.1>
177.25614088,-169.46034682,-101.12681006,-61.53171369,70.35139626,46.55588525
176.90019096,-77.41448042,141.11026630,86.73147593,-65.47620931,-6.62288418
2.23431007,1.82808554,-0.49982375,-1.07942463,1.29480629

>  <Name>
1uui_lig

>  <RI>
0

>  <Rbt.Current_Directory>
/home/itssahil/PROJECTS/Mol_Feturizer/New_Systems/rnas/1uui

>  <Rbt.Executable>
rbdock ($Id: //depot/dev/client3/rdock/2013.1/src/exe/rbdock.cxx#4 $)

>  <Rbt.Library>
libRbt.so (2013.1, Build901 2013/11/27)

>  <Rbt.Parameter_File>
/export/apps/rDock/src/rDock_2013.1_src/data/scripts/dock_solv.prm

>  <Rbt.Receptor>
prm/pocket_docking_7.prm

>  <SCORE>
-23.2967

>  <SCORE.INTER>
-17.9896

>  <SCORE.INTER.CONST>
1

>  <SCORE.INTER.POLAR>
-2.98994

>  <SCORE.INTER.ROT>
10

>  <SCORE.INTER.SOLV>
4.90837

>  <SCORE.INTER.VDW>
-13.9294

>  <SCORE.INTER.norm>
-0.782157

>  <SCORE.INTRA>
-5.30704

>  <SCORE.INTRA.DIHEDRAL>
-9.70018

>  <SCORE.INTRA.DIHEDRAL.0>
23.4151

>  <SCORE.INTRA.POLAR>
0

>  <SCORE.INTRA.POLAR.0>
0

>  <SCORE.INTRA.REPUL>
0

>  <SCORE.INTRA.REPUL.0>
0

>  <SCORE.INTRA.SOLV>
0.203998

>  <SCORE.INTRA.SOLV.lig_0>
-17.3568

>  <SCORE.INTRA.VDW>
-0.558947

>  <SCORE.INTRA.VDW.0>
1.0768

>  <SCORE.INTRA.norm>
-0.230741

>  <SCORE.RESTR>
0

>  <SCORE.RESTR.CAVITY>
0

>  <SCORE.RESTR.norm>
0

>  <SCORE.SYSTEM>
0

>  <SCORE.SYSTEM.CONST>
0

>  <SCORE.SYSTEM.DIHEDRAL>
0

>  <SCORE.SYSTEM.SOLV>
0

>  <SCORE.SYSTEM.norm>
0

>  <SCORE.heavy>
23

>  <SCORE.norm>
-1.0129

>  <RMSD>
7.534

$$$$
1uui_lig
 OpenBabel11021811413D
libRbt.so/2013.1/901 2013/11/27
 23 24  0  0  0  0  0  0  0  0999 V2000
   -5.7499    0.1032    0.0883 C   0  0  0  0  0  0  0  0  0  0  0  0
   -7.3047    2.2607   -1.0861 O   0  0  0  0  0  0  0  0  0  0  0  0
   -3.1886    3.6468    2.6072 O   0  0  0  0  0  0  0  0  0  0  0  0
   -7.3260    3.1956   -2.1721 C   0  0  0  0  0  0  0  0  0  0  0  0
   -2.1016    4.2566    1.9068 C   0  0  0  0  0  0  0  0  0  0  0  0
   -7.0122   -0.3634    0.7504 N   0  0  0  0  0  0  0  0  0  0  0  0
   -8.5468    2.9148   -3.0496 C   0  0  0  0  0  0  0  0  0  0  0  0
   -6.9996   -0.0635    2.2080 C   0  0  0  0  0  0  0  0  0  0  0  0
   -7.2111   -1.8226    0.5461 C   0  0  0  0  0  0  0  0  0  0  0  0
   -8.2880    1.6876   -3.9295 C   0  0  0  0  0  0  0  0  0  0  0  0
   -5.8391   -0.7689    2.9302 C   0  0  0  0  0  0  0  0  0  0  0  0
   -6.0437   -2.6406    1.1242 C   0  0  0  0  0  0  0  0  0  0  0  0
   -7.7052    2.1191   -5.2197 N   0  0  0  0  0  0  0  0  0  0  0  0
   -5.2247   -1.8450    2.0910 N   0  0  0  0  0  0  0  0  0  0  0  0
   -3.9222   -2.2821    2.3957 C   0  0  0  0  0  0  0  0  0  0  0  0
   -3.6733   -3.5945    2.6690 N   0  0  0  0  0  0  0  0  0  0  0  0
   -2.9070   -1.3859    2.5565 N   0  0  0  0  0  0  0  0  0  0  0  0
   -6.2689    2.6063   -0.1621 C   0  0  0  0  0  0  0  0  0  0  0  0
   -5.4825    1.5855    0.4385 C   0  0  0  0  0  0  0  0  0  0  0  0
   -4.4564    1.9337    1.3603 C   0  0  0  0  0  0  0  0  0  0  0  0
   -4.2195    3.2986    1.6787 C   0  0  0  0  0  0  0  0  0  0  0  0
   -5.0056    4.3157    1.0764 C   0  0  0  0  0  0  0  0  0  0  0  0
   -6.0306    3.9693    0.1571 C   0  0  0  0  0  0  0  0  0  0  0  0
  2  4  1  0  0  0  0
  3  5  1  0  0  0  0
  4  7  1  0  0  0  0
  6  1  1  0  0  0  0
  7 10  1  0  0  0  0
  8  6  1  0  0  0  0
  8 11  1  0  0  0  0
  9  6  1  0  0  0  0
 10 13  1  0  0  0  0
 11 14  1  0  0  0  0
 12  9  1  0  0  0  0
 14 12  1  0  0  0  0
 14 15  1  0  0  0  0
 15 16  1  0  0  0  0
 15 17  1  0  0  0  0
 18  2  1  0  0  0  0
 18 23  2  0  0  0  0
 19  1  1  0  0  0  0
 19 18  1  0  0  0  0
 20 19  2  0  0  0  0
 21  3  1  0  0  0  0
 21 20  1  0  0  0  0
 22 21  2  0  0  0  0
 22 23  1  0  0  0  0
M  END
>  <CHROM.1>
-172.85759490,-76.88731226,-51.81314932,-91.17880987,-50.77270226,122.82901998
60.62111122,112.48517543,-140.23493702,-73.85854825,108.55245762,-5.66667073
0.96430281,0.44304857,0.86757176,0.85419723,2.82180742

>  <Name>
1uui_lig

>  <RI>
0

>  <Rbt.Current_Directory>
/home/itssahil/PROJECTS/Mol_Feturizer/New_Systems/rnas/1uui

>  <Rbt.Executable>
rbdock ($Id: //depot/dev/client3/rdock/2013.1/src/exe/rbdock.cxx#4 $)

>  <Rbt.Library>
libRbt.so (2013.1, Build901 2013/11/27)

>  <Rbt.Parameter_File>
/export/apps/rDock/src/rDock_2013.1_src/data/scripts/dock_solv.prm

>  <Rbt.Receptor>
prm/pocket_docking_8.prm

>  <SCORE>
-26.3291

>  <SCORE.INTER>
-21.5671

>  <SCORE.INTER.CONST>
1

>  <SCORE.INTER.POLAR>
-3.48726

>  <SCORE.INTER.ROT>
10

>  <SCORE.INTER.SOLV>
6.10792

>  <SCORE.INTER.VDW>
-15.0565

>  <SCORE.INTER.norm>
-0.937699

>  <SCORE.INTRA>
-4.76202

>  <SCORE.INTRA.DIHEDRAL>
-8.3286

>  <SCORE.INTRA.DIHEDRAL.0>
23.4151

>  <SCORE.INTRA.POLAR>
0

>  <SCORE.INTRA.POLAR.0>
0

>  <SCORE.INTRA.REPUL>
0

>  <SCORE.INTRA.REPUL.0>
0

>  <SCORE.INTRA.SOLV>
0.490485

>  <SCORE.INTRA.SOLV.lig_0>
-17.3568

>  <SCORE.INTRA.VDW>
-0.842963

>  <SCORE.INTRA.VDW.0>
1.0768

>  <SCORE.INTRA.norm>
-0.207044

>  <SCORE.RESTR>
0

>  <SCORE.RESTR.CAVITY>
0

>  <SCORE.RESTR.norm>
0

>  <SCORE.SYSTEM>
0

>  <SCORE.SYSTEM.CONST>
0

>  <SCORE.SYSTEM.DIHEDRAL>
0

>  <SCORE.SYSTEM.SOLV>
0

>  <SCORE.SYSTEM.norm>
0

>  <SCORE.heavy>
23

>  <SCORE.norm>
-1.14474

>  <RMSD>
7.535

$$$$
1uui_lig
 OpenBabel11021811413D
libRbt.so/2013.1/901 2013/11/27
 23 24  0  0  0  0  0  0  0  0999 V2000
   -7.9182    0.1654   -1.3016 C   0  0  0  0  0  0  0  0  0  0  0  0
  -10.8127    0.3731   -1.1286 O   0  0  0  0  0  0  0  0  0  0  0  0
   -7.6912    3.9402    2.0392 O   0  0  0  0  0  0  0  0  0  0  0  0
  -11.3306    1.0564   -2.2771 C   0  0  0  0  0  0  0  0  0  0  0  0
   -7.5605    3.4110    3.3609 C   0  0  0  0  0  0  0  0  0  0  0  0
   -7.0085    0.8558   -2.2738 N   0  0  0  0  0  0  0  0  0  0  0  0
  -12.5956    1.8175   -1.8775 C   0  0  0  0  0  0  0  0  0  0  0  0
   -6.7045   -0.0161   -3.4408 C   0  0  0  0  0  0  0  0  0  0  0  0
   -5.7392    1.2638   -1.6158 C   0  0  0  0  0  0  0  0  0  0  0  0
  -13.1258    2.6159   -3.0727 C   0  0  0  0  0  0  0  0  0  0  0  0
   -5.9930   -1.3132   -3.0198 C   0  0  0  0  0  0  0  0  0  0  0  0
   -4.9845    0.0536   -1.0395 C   0  0  0  0  0  0  0  0  0  0  0  0
  -12.2183    3.7518   -3.3496 N   0  0  0  0  0  0  0  0  0  0  0  0
   -5.4665   -1.2379   -1.6209 N   0  0  0  0  0  0  0  0  0  0  0  0
   -5.1873   -2.4352   -0.9360 C   0  0  0  0  0  0  0  0  0  0  0  0
   -4.4510   -3.4199   -1.5252 N   0  0  0  0  0  0  0  0  0  0  0  0
   -5.7572   -2.6931    0.2757 N   0  0  0  0  0  0  0  0  0  0  0  0
  -10.0275    1.2696   -0.3376 C   0  0  0  0  0  0  0  0  0  0  0  0
   -8.6081    1.2053   -0.3885 C   0  0  0  0  0  0  0  0  0  0  0  0
   -7.8313    2.0960    0.4034 C   0  0  0  0  0  0  0  0  0  0  0  0
   -8.4739    3.0467    1.2422 C   0  0  0  0  0  0  0  0  0  0  0  0
   -9.8913    3.1093    1.2899 C   0  0  0  0  0  0  0  0  0  0  0  0
  -10.6676    2.2202    0.5009 C   0  0  0  0  0  0  0  0  0  0  0  0
  2  4  1  0  0  0  0
  3  5  1  0  0  0  0
  4  7  1  0  0  0  0
  6  1  1  0  0  0  0
  7 10  1  0  0  0  0
  8  6  1  0  0  0  0
  8 11  1  0  0  0  0
  9  6  1  0  0  0  0
 10 13  1  0  0  0  0
 11 14  1  0  0  0  0
 12  9  1  0  0  0  0
 14 12  1  0  0  0  0
 14 15  1  0  0  0  0
 15 16  1  0  0  0  0
 15 17  1  0  0  0  0
 18  2  1  0  0  0  0
 18 23  2  0  0  0  0
 19  1  1  0  0  0  0
 19 18  1  0  0  0  0
 20 19  2  0  0  0  0
 21  3  1  0  0  0  0
 21 20  1  0  0  0  0
 22 21  2  0  0  0  0
 22 23  1  0  0  0  0
M  END
>  <CHROM.1>
-82.60822846,177.02650236,-160.23278852,-71.01824347,-63.62084979,48.73843527
44.95976489,139.99918023,-102.94997540,122.43452653,-96.32711243,-8.24983589
0.90011398,-0.90283746,0.39037414,0.50740117,-2.22445046

>  <Name>
1uui_lig

>  <RI>
0

>  <Rbt.Current_Directory>
/home/itssahil/PROJECTS/Mol_Feturizer/New_Systems/rnas/1uui

>  <Rbt.Executable>
rbdock ($Id: //depot/dev/client3/rdock/2013.1/src/exe/rbdock.cxx#4 $)

>  <Rbt.Library>
libRbt.so (2013.1, Build901 2013/11/27)

>  <Rbt.Parameter_File>
/export/apps/rDock/src/rDock_2013.1_src/data/scripts/dock_solv.prm

>  <Rbt.Receptor>
prm/pocket_docking_6.prm

>  <SCORE>
-17.5559

>  <SCORE.INTER>
-12.3112

>  <SCORE.INTER.CONST>
1

>  <SCORE.INTER.POLAR>
-2.58577

>  <SCORE.INTER.ROT>
10

>  <SCORE.INTER.SOLV>
5.62461

>  <SCORE.INTER.VDW>
-11.7298

>  <SCORE.INTER.norm>
-0.53527

>  <SCORE.INTRA>
-5.24472

>  <SCORE.INTRA.DIHEDRAL>
-6.26453

>  <SCORE.INTRA.DIHEDRAL.0>
23.4151

>  <SCORE.INTRA.POLAR>
0

>  <SCORE.INTRA.POLAR.0>
0

>  <SCORE.INTRA.REPUL>
0

>  <SCORE.INTRA.REPUL.0>
0

>  <SCORE.INTRA.SOLV>
0.0826128

>  <SCORE.INTRA.SOLV.lig_0>
-17.3568

>  <SCORE.INTRA.VDW>
-2.15376

>  <SCORE.INTRA.VDW.0>
1.0768

>  <SCORE.INTRA.norm>
-0.228031

>  <SCORE.RESTR>
0

>  <SCORE.RESTR.CAVITY>
0

>  <SCORE.RESTR.norm>
0

>  <SCORE.SYSTEM>
0

>  <SCORE.SYSTEM.CONST>
0

>  <SCORE.SYSTEM.DIHEDRAL>
0

>  <SCORE.SYSTEM.SOLV>
0

>  <SCORE.SYSTEM.norm>
0

>  <SCORE.heavy>
23

>  <SCORE.norm>
-0.763302

>  <RMSD>
7.563

$$$$
1uui_lig
 OpenBabel11021811413D
libRbt.so/2013.1/901 2013/11/27
 23 24  0  0  0  0  0  0  0  0999 V2000
   -6.1604   -1.4122    1.1262 C   0  0  0  0  0  0  0  0  0  0  0  0
   -6.6382   -0.5653   -1.6134 O   0  0  0  0  0  0  0  0  0  0  0  0
   -9.6471    1.9589    2.5193 O   0  0  0  0  0  0  0  0  0  0  0  0
   -5.4143    0.1455   -1.8389 C   0  0  0  0  0  0  0  0  0  0  0  0
   -9.1029    3.2537    2.7862 C   0  0  0  0  0  0  0  0  0  0  0  0
   -5.1596   -0.8897    2.1136 N   0  0  0  0  0  0  0  0  0  0  0  0
   -4.8535   -0.2463   -3.2069 C   0  0  0  0  0  0  0  0  0  0  0  0
   -4.0826   -0.1197    1.4340 C   0  0  0  0  0  0  0  0  0  0  0  0
   -4.5565   -2.0003    2.8968 C   0  0  0  0  0  0  0  0  0  0  0  0
   -5.6925    0.3913   -4.3189 C   0  0  0  0  0  0  0  0  0  0  0  0
   -3.2997   -0.9865    0.4332 C   0  0  0  0  0  0  0  0  0  0  0  0
   -3.8391   -3.0119    1.9868 C   0  0  0  0  0  0  0  0  0  0  0  0
   -6.9878   -0.3163   -4.4278 N   0  0  0  0  0  0  0  0  0  0  0  0
   -3.5595   -2.4472    0.6298 N   0  0  0  0  0  0  0  0  0  0  0  0
   -3.2891   -3.3328   -0.4299 C   0  0  0  0  0  0  0  0  0  0  0  0
   -2.0886   -3.9736   -0.5138 N   0  0  0  0  0  0  0  0  0  0  0  0
   -4.1658   -3.4671   -1.4658 N   0  0  0  0  0  0  0  0  0  0  0  0
   -7.3892    0.0693   -0.5745 C   0  0  0  0  0  0  0  0  0  0  0  0
   -7.1906   -0.3120    0.7806 C   0  0  0  0  0  0  0  0  0  0  0  0
   -7.9430    0.3188    1.8101 C   0  0  0  0  0  0  0  0  0  0  0  0
   -8.8901    1.3270    1.4830 C   0  0  0  0  0  0  0  0  0  0  0  0
   -9.0853    1.7065    0.1291 C   0  0  0  0  0  0  0  0  0  0  0  0
   -8.3357    1.0769   -0.8993 C   0  0  0  0  0  0  0  0  0  0  0  0
  2  4  1  0  0  0  0
  3  5  1  0  0  0  0
  4  7  1  0  0  0  0
  6  1  1  0  0  0  0
  7 10  1  0  0  0  0
  8  6  1  0  0  0  0
  8 11  1  0  0  0  0
  9  6  1  0  0  0  0
 10 13  1  0  0  0  0
 11 14  1  0  0  0  0
 12  9  1  0  0  0  0
 14 12  1  0  0  0  0
 14 15  1  0  0  0  0
 15 16  1  0  0  0  0
 15 17  1  0  0  0  0
 18  2  1  0  0  0  0
 18 23  2  0  0  0  0
 19  1  1  0  0  0  0
 19 18  1  0  0  0  0
 20 19  2  0  0  0  0
 21  3  1  0  0  0  0
 21 20  1  0  0  0  0
 22 21  2  0  0  0  0
 22 23  1  0  0  0  0
M  END
>  <CHROM.1>
-161.86551798,73.06199837,-82.60095554,-73.83357665,55.40414619,93.91480752
82.50019941,-94.77267734,-89.46294225,124.06550633,102.66951077,-5.93526287
-0.59302528,-0.00932735,-0.22520115,-0.69514973,1.59750163

>  <Name>
1uui_lig

>  <RI>
0

>  <Rbt.Current_Directory>
/home/itssahil/PROJECTS/Mol_Feturizer/New_Systems/rnas/1uui

>  <Rbt.Executable>
rbdock ($Id: //depot/dev/client3/rdock/2013.1/src/exe/rbdock.cxx#4 $)

>  <Rbt.Library>
libRbt.so (2013.1, Build901 2013/11/27)

>  <Rbt.Parameter_File>
/export/apps/rDock/src/rDock_2013.1_src/data/scripts/dock_solv.prm

>  <Rbt.Receptor>
prm/pocket_docking_8.prm

>  <SCORE>
-31.9333

>  <SCORE.INTER>
-23.5227

>  <SCORE.INTER.CONST>
1

>  <SCORE.INTER.POLAR>
-3.98105

>  <SCORE.INTER.ROT>
10

>  <SCORE.INTER.SOLV>
5.35352

>  <SCORE.INTER.VDW>
-14.4628

>  <SCORE.INTER.norm>
-1.02272

>  <SCORE.INTRA>
-8.41066

>  <SCORE.INTRA.DIHEDRAL>
-5.55217

>  <SCORE.INTRA.DIHEDRAL.0>
23.4151

>  <SCORE.INTRA.POLAR>
-0.547335

>  <SCORE.INTRA.POLAR.0>
0

>  <SCORE.INTRA.REPUL>
0

>  <SCORE.INTRA.REPUL.0>
0

>  <SCORE.INTRA.SOLV>
1.10597

>  <SCORE.INTRA.SOLV.lig_0>
-17.3568

>  <SCORE.INTRA.VDW>
-4.32662

>  <SCORE.INTRA.VDW.0>
1.0768

>  <SCORE.INTRA.norm>
-0.365681

>  <SCORE.RESTR>
0

>  <SCORE.RESTR.CAVITY>
0

>  <SCORE.RESTR.norm>
0

>  <SCORE.SYSTEM>
0

>  <SCORE.SYSTEM.CONST>
0

>  <SCORE.SYSTEM.DIHEDRAL>
0

>  <SCORE.SYSTEM.SOLV>
0

>  <SCORE.SYSTEM.norm>
0

>  <SCORE.heavy>
23

>  <SCORE.norm>
-1.38841

>  <RMSD>
7.579

$$$$
1uui_lig
 OpenBabel11021811413D
libRbt.so/2013.1/901 2013/11/27
 23 24  0  0  0  0  0  0  0  0999 V2000
   -5.6414    0.1086   -0.0074 C   0  0  0  0  0  0  0  0  0  0  0  0
   -7.5724    0.9431   -2.0140 O   0  0  0  0  0  0  0  0  0  0  0  0
   -3.2718   -2.4062   -3.6847 O   0  0  0  0  0  0  0  0  0  0  0  0
   -7.4537    2.2315   -2.6303 C   0  0  0  0  0  0  0  0  0  0  0  0
   -2.1337   -1.5985   -3.9950 C   0  0  0  0  0  0  0  0  0  0  0  0
   -7.0423   -0.1020    0.4854 N   0  0  0  0  0  0  0  0  0  0  0  0
   -7.9497    2.1423   -4.0744 C   0  0  0  0  0  0  0  0  0  0  0  0
   -7.1347    0.1105    1.9554 C   0  0  0  0  0  0  0  0  0  0  0  0
   -7.5233   -1.4684    0.1507 C   0  0  0  0  0  0  0  0  0  0  0  0
   -6.8767    2.6733   -5.0303 C   0  0  0  0  0  0  0  0  0  0  0  0
   -6.2434   -0.8708    2.7355 C   0  0  0  0  0  0  0  0  0  0  0  0
   -6.6326   -2.5533    0.7799 C   0  0  0  0  0  0  0  0  0  0  0  0
   -7.3346    2.5074   -6.4279 N   0  0  0  0  0  0  0  0  0  0  0  0
   -5.7801   -2.0102    1.8830 N   0  0  0  0  0  0  0  0  0  0  0  0
   -4.6454   -2.7396    2.2840 C   0  0  0  0  0  0  0  0  0  0  0  0
   -4.3886   -3.9725    1.7614 N   0  0  0  0  0  0  0  0  0  0  0  0
   -3.8526   -2.2913    3.2989 N   0  0  0  0  0  0  0  0  0  0  0  0
   -6.4947    0.0996   -2.4301 C   0  0  0  0  0  0  0  0  0  0  0  0
   -5.5253   -0.3336   -1.4846 C   0  0  0  0  0  0  0  0  0  0  0  0
   -4.4527   -1.1688   -1.9040 C   0  0  0  0  0  0  0  0  0  0  0  0
   -4.3520   -1.5679   -3.2645 C   0  0  0  0  0  0  0  0  0  0  0  0
   -5.3222   -1.1348   -4.2059 C   0  0  0  0  0  0  0  0  0  0  0  0
   -6.3925   -0.3004   -3.7887 C   0  0  0  0  0  0  0  0  0  0  0  0
  2  4  1  0  0  0  0
  3  5  1  0  0  0  0
  4  7  1  0  0  0  0
  6  1  1  0  0  0  0
  7 10  1  0  0  0  0
  8  6  1  0  0  0  0
  8 11  1  0  0  0  0
  9  6  1  0  0  0  0
 10 13  1  0  0  0  0
 11 14  1  0  0  0  0
 12  9  1  0  0  0  0
 14 12  1  0  0  0  0
 14 15  1  0  0  0  0
 15 16  1  0  0  0  0
 15 17  1  0  0  0  0
 18  2  1  0  0  0  0
 18 23  2  0  0  0  0
 19  1  1  0  0  0  0
 19 18  1  0  0  0  0
 20 19  2  0  0  0  0
 21  3  1  0  0  0  0
 21 20  1  0  0  0  0
 22 21  2  0  0  0  0
 22 23  1  0  0  0  0
M  END
>  <CHROM.1>
78.52423799,-126.33523183,171.04651025,176.64057105,-62.94221203,162.63201822
-157.67297509,-40.01184619,114.09627029,47.88875100,-85.70095203,-5.82224973
-0.59208756,-1.28520227,1.33331548,-0.71221607,1.90279294

>  <Name>
1uui_lig

>  <RI>
0

>  <Rbt.Current_Directory>
/home/itssahil/PROJECTS/Mol_Feturizer/New_Systems/rnas/1uui

>  <Rbt.Executable>
rbdock ($Id: //depot/dev/client3/rdock/2013.1/src/exe/rbdock.cxx#4 $)

>  <Rbt.Library>
libRbt.so (2013.1, Build901 2013/11/27)

>  <Rbt.Parameter_File>
/export/apps/rDock/src/rDock_2013.1_src/data/scripts/dock_solv.prm

>  <Rbt.Receptor>
prm/pocket_docking_8.prm

>  <SCORE>
-34.2722

>  <SCORE.INTER>
-31.1988

>  <SCORE.INTER.CONST>
1

>  <SCORE.INTER.POLAR>
-3.88564

>  <SCORE.INTER.ROT>
10

>  <SCORE.INTER.SOLV>
9.42892

>  <SCORE.INTER.VDW>
-21.2567

>  <SCORE.INTER.norm>
-1.35647

>  <SCORE.INTRA>
-3.0734

>  <SCORE.INTRA.DIHEDRAL>
-3.14806

>  <SCORE.INTRA.DIHEDRAL.0>
23.4151

>  <SCORE.INTRA.POLAR>
-0.448133

>  <SCORE.INTRA.POLAR.0>
0

>  <SCORE.INTRA.REPUL>
0

>  <SCORE.INTRA.REPUL.0>
0

>  <SCORE.INTRA.SOLV>
0.480503

>  <SCORE.INTRA.SOLV.lig_0>
-17.3568

>  <SCORE.INTRA.VDW>
-0.215966

>  <SCORE.INTRA.VDW.0>
1.0768

>  <SCORE.INTRA.norm>
-0.133626

>  <SCORE.RESTR>
0

>  <SCORE.RESTR.CAVITY>
0

>  <SCORE.RESTR.norm>
0

>  <SCORE.SYSTEM>
0

>  <SCORE.SYSTEM.CONST>
0

>  <SCORE.SYSTEM.DIHEDRAL>
0

>  <SCORE.SYSTEM.SOLV>
0

>  <SCORE.SYSTEM.norm>
0

>  <SCORE.heavy>
23

>  <SCORE.norm>
-1.49009

>  <RMSD>
7.611

$$$$
1uui_lig
 OpenBabel11021811413D
libRbt.so/2013.1/901 2013/11/27
 23 24  0  0  0  0  0  0  0  0999 V2000
  -14.0821    1.6011    5.5587 C   0  0  0  0  0  0  0  0  0  0  0  0
  -12.7198    3.0947    7.6478 O   0  0  0  0  0  0  0  0  0  0  0  0
  -18.3716    3.6933    7.1972 O   0  0  0  0  0  0  0  0  0  0  0  0
  -12.0886    4.3804    7.5966 C   0  0  0  0  0  0  0  0  0  0  0  0
  -19.0106    2.4480    7.4886 C   0  0  0  0  0  0  0  0  0  0  0  0
  -14.5615    0.1882    5.7118 N   0  0  0  0  0  0  0  0  0  0  0  0
  -10.5963    4.1939    7.3184 C   0  0  0  0  0  0  0  0  0  0  0  0
  -13.4366   -0.7789    5.5938 C   0  0  0  0  0  0  0  0  0  0  0  0
  -15.6001   -0.1332    4.6977 C   0  0  0  0  0  0  0  0  0  0  0  0
  -10.1037    5.2784    6.3550 C   0  0  0  0  0  0  0  0  0  0  0  0
  -12.7484   -0.6958    4.2207 C   0  0  0  0  0  0  0  0  0  0  0  0
  -15.0645    0.0318    3.2652 C   0  0  0  0  0  0  0  0  0  0  0  0
   -8.6604    5.0854    6.0903 N   0  0  0  0  0  0  0  0  0  0  0  0
  -13.5692    0.0614    3.2244 N   0  0  0  0  0  0  0  0  0  0  0  0
  -12.9329    0.5992    2.0902 C   0  0  0  0  0  0  0  0  0  0  0  0
  -12.6376   -0.1887    1.0174 N   0  0  0  0  0  0  0  0  0  0  0  0
  -12.4774    1.8845    2.0915 N   0  0  0  0  0  0  0  0  0  0  0  0
  -14.1384    3.2404    7.5353 C   0  0  0  0  0  0  0  0  0  0  0  0
  -14.8481    2.5305    6.5285 C   0  0  0  0  0  0  0  0  0  0  0  0
  -16.2583    2.6820    6.4176 C   0  0  0  0  0  0  0  0  0  0  0  0
  -16.9539    3.5408    7.3114 C   0  0  0  0  0  0  0  0  0  0  0  0
  -16.2426    4.2473    8.3165 C   0  0  0  0  0  0  0  0  0  0  0  0
  -14.8351    4.0977    8.4274 C   0  0  0  0  0  0  0  0  0  0  0  0
  2  4  1  0  0  0  0
  3  5  1  0  0  0  0
  4  7  1  0  0  0  0
  6  1  1  0  0  0  0
  7 10  1  0  0  0  0
  8  6  1  0  0  0  0
  8 11  1  0  0  0  0
  9  6  1  0  0  0  0
 10 13  1  0  0  0  0
 11 14  1  0  0  0  0
 12  9  1  0  0  0  0
 14 12  1  0  0  0  0
 14 15  1  0  0  0  0
 15 16  1  0  0  0  0
 15 17  1  0  0  0  0
 18  2  1  0  0  0  0
 18 23  2  0  0  0  0
 19  1  1  0  0  0  0
 19 18  1  0  0  0  0
 20 19  2  0  0  0  0
 21  3  1  0  0  0  0
 21 20  1  0  0  0  0
 22 21  2  0  0  0  0
 22 23  1  0  0  0  0
M  END
>  <CHROM.1>
-164.05985879,140.71274403,-142.05265241,-179.83346493,-63.81864713,79.76781218
103.05025657,-132.11220406,125.39079321,118.33557414,64.93069438,-13.92528452
2.21494462,5.67112102,0.96480643,-0.26513970,-2.31199837

>  <Name>
1uui_lig

>  <RI>
0

>  <Rbt.Current_Directory>
/home/itssahil/PROJECTS/Mol_Feturizer/New_Systems/rnas/1uui

>  <Rbt.Executable>
rbdock ($Id: //depot/dev/client3/rdock/2013.1/src/exe/rbdock.cxx#4 $)

>  <Rbt.Library>
libRbt.so (2013.1, Build901 2013/11/27)

>  <Rbt.Parameter_File>
/export/apps/rDock/src/rDock_2013.1_src/data/scripts/dock_solv.prm

>  <Rbt.Receptor>
prm/pocket_docking_7.prm

>  <SCORE>
-27.6129

>  <SCORE.INTER>
-23.5925

>  <SCORE.INTER.CONST>
1

>  <SCORE.INTER.POLAR>
-2.59882

>  <SCORE.INTER.ROT>
10

>  <SCORE.INTER.SOLV>
4.54616

>  <SCORE.INTER.VDW>
-18.8476

>  <SCORE.INTER.norm>
-1.02576

>  <SCORE.INTRA>
-4.02039

>  <SCORE.INTRA.DIHEDRAL>
-4.16209

>  <SCORE.INTRA.DIHEDRAL.0>
23.4151

>  <SCORE.INTRA.POLAR>
0

>  <SCORE.INTRA.POLAR.0>
0

>  <SCORE.INTRA.REPUL>
0

>  <SCORE.INTRA.REPUL.0>
0

>  <SCORE.INTRA.SOLV>
-0.11602

>  <SCORE.INTRA.SOLV.lig_0>
-17.3568

>  <SCORE.INTRA.VDW>
-1.88134

>  <SCORE.INTRA.VDW.0>
1.0768

>  <SCORE.INTRA.norm>
-0.1748

>  <SCORE.RESTR>
0

>  <SCORE.RESTR.CAVITY>
0

>  <SCORE.RESTR.norm>
0

>  <SCORE.SYSTEM>
0

>  <SCORE.SYSTEM.CONST>
0

>  <SCORE.SYSTEM.DIHEDRAL>
0

>  <SCORE.SYSTEM.SOLV>
0

>  <SCORE.SYSTEM.norm>
0

>  <SCORE.heavy>
23

>  <SCORE.norm>
-1.20056

>  <RMSD>
7.622

$$$$
1uui_lig
 OpenBabel11021811413D
libRbt.so/2013.1/901 2013/11/27
 23 24  0  0  0  0  0  0  0  0999 V2000
   -5.5274    0.0359    0.9770 C   0  0  0  0  0  0  0  0  0  0  0  0
   -6.5139    1.1165   -1.5351 O   0  0  0  0  0  0  0  0  0  0  0  0
   -5.8611    4.7136    2.8397 O   0  0  0  0  0  0  0  0  0  0  0  0
   -5.5096    1.3595   -2.5282 C   0  0  0  0  0  0  0  0  0  0  0  0
   -6.8793    4.4679    3.8129 C   0  0  0  0  0  0  0  0  0  0  0  0
   -6.2374   -0.5244    2.1734 N   0  0  0  0  0  0  0  0  0  0  0  0
   -6.1010    2.2364   -3.6330 C   0  0  0  0  0  0  0  0  0  0  0  0
   -5.2816   -0.8372    3.2704 C   0  0  0  0  0  0  0  0  0  0  0  0
   -6.9980   -1.7502    1.8139 C   0  0  0  0  0  0  0  0  0  0  0  0
   -6.9985    1.3945   -4.5456 C   0  0  0  0  0  0  0  0  0  0  0  0
   -4.2423   -1.8885    2.8452 C   0  0  0  0  0  0  0  0  0  0  0  0
   -6.0753   -2.8468    1.2551 C   0  0  0  0  0  0  0  0  0  0  0  0
   -7.3698    2.1861   -5.7397 N   0  0  0  0  0  0  0  0  0  0  0  0
   -4.6383   -2.5947    1.5866 N   0  0  0  0  0  0  0  0  0  0  0  0
   -3.6448   -3.2489    0.8347 C   0  0  0  0  0  0  0  0  0  0  0  0
   -3.8345   -3.5154   -0.4889 N   0  0  0  0  0  0  0  0  0  0  0  0
   -2.5303   -3.7497    1.4402 N   0  0  0  0  0  0  0  0  0  0  0  0
   -6.3457    2.0179   -0.4372 C   0  0  0  0  0  0  0  0  0  0  0  0
   -5.8666    1.5355    0.8114 C   0  0  0  0  0  0  0  0  0  0  0  0
   -5.7052    2.4348    1.9018 C   0  0  0  0  0  0  0  0  0  0  0  0
   -6.0223    3.8111    1.7417 C   0  0  0  0  0  0  0  0  0  0  0  0
   -6.4992    4.2900    0.4933 C   0  0  0  0  0  0  0  0  0  0  0  0
   -6.6618    3.3932   -0.5953 C   0  0  0  0  0  0  0  0  0  0  0  0
  2  4  1  0  0  0  0
  3  5  1  0  0  0  0
  4  7  1  0  0  0  0
  6  1  1  0  0  0  0
  7 10  1  0  0  0  0
  8  6  1  0  0  0  0
  8 11  1  0  0  0  0
  9  6  1  0  0  0  0
 10 13  1  0  0  0  0
 11 14  1  0  0  0  0
 12  9  1  0  0  0  0
 14 12  1  0  0  0  0
 14 15  1  0  0  0  0
 15 16  1  0  0  0  0
 15 17  1  0  0  0  0
 18  2  1  0  0  0  0
 18 23  2  0  0  0  0
 19  1  1  0  0  0  0
 19 18  1  0  0  0  0
 20 19  2  0  0  0  0
 21  3  1  0  0  0  0
 21 20  1  0  0  0  0
 22 21  2  0  0  0  0
 22 23  1  0  0  0  0
M  END
>  <CHROM.1>
-98.20636088,-76.80998389,-109.97872513,-169.98945276,-75.93698832,-158.18269490
-61.44374344,138.40091313,-108.53865277,-127.58233907,-72.11537870,-5.70100777
0.56356222,0.31216093,0.15803469,-1.23712341,1.21120602

>  <Name>
1uui_lig

>  <RI>
0

>  <Rbt.Current_Directory>
/home/itssahil/PROJECTS/Mol_Feturizer/New_Systems/rnas/1uui

>  <Rbt.Executable>
rbdock ($Id: //depot/dev/client3/rdock/2013.1/src/exe/rbdock.cxx#4 $)

>  <Rbt.Library>
libRbt.so (2013.1, Build901 2013/11/27)

>  <Rbt.Parameter_File>
/export/apps/rDock/src/rDock_2013.1_src/data/scripts/dock_solv.prm

>  <Rbt.Receptor>
prm/pocket_docking_7.prm

>  <SCORE>
-25.5941

>  <SCORE.INTER>
-24.035

>  <SCORE.INTER.CONST>
1

>  <SCORE.INTER.POLAR>
-3.48125

>  <SCORE.INTER.ROT>
10

>  <SCORE.INTER.SOLV>
4.93493

>  <SCORE.INTER.VDW>
-16.3308

>  <SCORE.INTER.norm>
-1.045

>  <SCORE.INTRA>
-1.55912

>  <SCORE.INTRA.DIHEDRAL>
0.140077

>  <SCORE.INTRA.DIHEDRAL.0>
23.4151

>  <SCORE.INTRA.POLAR>
0

>  <SCORE.INTRA.POLAR.0>
0

>  <SCORE.INTRA.REPUL>
0

>  <SCORE.INTRA.REPUL.0>
0

>  <SCORE.INTRA.SOLV>
-0.0581515

>  <SCORE.INTRA.SOLV.lig_0>
-17.3568

>  <SCORE.INTRA.VDW>
-1.60008

>  <SCORE.INTRA.VDW.0>
1.0768

>  <SCORE.INTRA.norm>
-0.0677879

>  <SCORE.RESTR>
0

>  <SCORE.RESTR.CAVITY>
0

>  <SCORE.RESTR.norm>
0

>  <SCORE.SYSTEM>
0

>  <SCORE.SYSTEM.CONST>
0

>  <SCORE.SYSTEM.DIHEDRAL>
0

>  <SCORE.SYSTEM.SOLV>
0

>  <SCORE.SYSTEM.norm>
0

>  <SCORE.heavy>
23

>  <SCORE.norm>
-1.11279

>  <RMSD>
7.623

$$$$
1uui_lig
 OpenBabel11021811413D
libRbt.so/2013.1/901 2013/11/27
 23 24  0  0  0  0  0  0  0  0999 V2000
  -13.9307    1.9108   -0.8768 C   0  0  0  0  0  0  0  0  0  0  0  0
  -15.9687   -0.0166   -0.1133 O   0  0  0  0  0  0  0  0  0  0  0  0
  -13.0049    2.5165    4.0464 O   0  0  0  0  0  0  0  0  0  0  0  0
  -15.5662   -1.3869   -0.2329 C   0  0  0  0  0  0  0  0  0  0  0  0
  -12.3258    1.5231    4.8183 C   0  0  0  0  0  0  0  0  0  0  0  0
  -14.0751    3.3859   -1.1062 N   0  0  0  0  0  0  0  0  0  0  0  0
  -16.2028   -2.1953    0.8987 C   0  0  0  0  0  0  0  0  0  0  0  0
  -14.6350    3.6698   -2.4555 C   0  0  0  0  0  0  0  0  0  0  0  0
  -12.7673    4.0772   -0.9566 C   0  0  0  0  0  0  0  0  0  0  0  0
  -15.8764   -3.6824    0.7276 C   0  0  0  0  0  0  0  0  0  0  0  0
  -13.7278    3.1383   -3.5781 C   0  0  0  0  0  0  0  0  0  0  0  0
  -11.7259    3.5431   -1.9548 C   0  0  0  0  0  0  0  0  0  0  0  0
  -16.3872   -4.4374    1.8936 N   0  0  0  0  0  0  0  0  0  0  0  0
  -12.3611    2.7876   -3.0791 N   0  0  0  0  0  0  0  0  0  0  0  0
  -11.5671    1.9077   -3.8380 C   0  0  0  0  0  0  0  0  0  0  0  0
  -11.9956    1.4505   -5.0489 N   0  0  0  0  0  0  0  0  0  0  0  0
  -10.4167    1.3879   -3.3224 N   0  0  0  0  0  0  0  0  0  0  0  0
  -15.2265    0.6231    0.9288 C   0  0  0  0  0  0  0  0  0  0  0  0
  -14.2191    1.5723    0.6042 C   0  0  0  0  0  0  0  0  0  0  0  0
  -13.4803    2.2026    1.6438 C   0  0  0  0  0  0  0  0  0  0  0  0
  -13.7500    1.8831    3.0024 C   0  0  0  0  0  0  0  0  0  0  0  0
  -14.7574    0.9359    3.3234 C   0  0  0  0  0  0  0  0  0  0  0  0
  -15.4945    0.3054    2.2866 C   0  0  0  0  0  0  0  0  0  0  0  0
  2  4  1  0  0  0  0
  3  5  1  0  0  0  0
  4  7  1  0  0  0  0
  6  1  1  0  0  0  0
  7 10  1  0  0  0  0
  8  6  1  0  0  0  0
  8 11  1  0  0  0  0
  9  6  1  0  0  0  0
 10 13  1  0  0  0  0
 11 14  1  0  0  0  0
 12  9  1  0  0  0  0
 14 12  1  0  0  0  0
 14 15  1  0  0  0  0
 15 16  1  0  0  0  0
 15 17  1  0  0  0  0
 18  2  1  0  0  0  0
 18 23  2  0  0  0  0
 19  1  1  0  0  0  0
 19 18  1  0  0  0  0
 20 19  2  0  0  0  0
 21  3  1  0  0  0  0
 21 20  1  0  0  0  0
 22 21  2  0  0  0  0
 22 23  1  0  0  0  0
M  END
>  <CHROM.1>
77.07655740,175.55241376,-144.82072159,174.68367188,52.46907331,4.28120754
130.99239662,53.48517622,107.82169541,123.73188963,-120.57415454,-13.87566887
1.13005055,-0.13674229,-0.62510834,1.04878238,1.32813068

>  <Name>
1uui_lig

>  <RI>
0

>  <Rbt.Current_Directory>
/home/itssahil/PROJECTS/Mol_Feturizer/New_Systems/rnas/1uui

>  <Rbt.Executable>
rbdock ($Id: //depot/dev/client3/rdock/2013.1/src/exe/rbdock.cxx#4 $)

>  <Rbt.Library>
libRbt.so (2013.1, Build901 2013/11/27)

>  <Rbt.Parameter_File>
/export/apps/rDock/src/rDock_2013.1_src/data/scripts/dock_solv.prm

>  <Rbt.Receptor>
prm/pocket_docking_5.prm

>  <SCORE>
-20.7273

>  <SCORE.INTER>
-17.1077

>  <SCORE.INTER.CONST>
1

>  <SCORE.INTER.POLAR>
-2.88499

>  <SCORE.INTER.ROT>
10

>  <SCORE.INTER.SOLV>
6.47425

>  <SCORE.INTER.VDW>
-14.2132

>  <SCORE.INTER.norm>
-0.743811

>  <SCORE.INTRA>
-3.61968

>  <SCORE.INTRA.DIHEDRAL>
-7.39178

>  <SCORE.INTRA.DIHEDRAL.0>
23.4151

>  <SCORE.INTRA.POLAR>
0

>  <SCORE.INTRA.POLAR.0>
0

>  <SCORE.INTRA.REPUL>
0

>  <SCORE.INTRA.REPUL.0>
0

>  <SCORE.INTRA.SOLV>
-0.0813848

>  <SCORE.INTRA.SOLV.lig_0>
-17.3568

>  <SCORE.INTRA.VDW>
0.116896

>  <SCORE.INTRA.VDW.0>
1.0768

>  <SCORE.INTRA.norm>
-0.157378

>  <SCORE.RESTR>
0

>  <SCORE.RESTR.CAVITY>
0

>  <SCORE.RESTR.norm>
0

>  <SCORE.SYSTEM>
0

>  <SCORE.SYSTEM.CONST>
0

>  <SCORE.SYSTEM.DIHEDRAL>
0

>  <SCORE.SYSTEM.SOLV>
0

>  <SCORE.SYSTEM.norm>
0

>  <SCORE.heavy>
23

>  <SCORE.norm>
-0.901189

>  <RMSD>
7.661

$$$$
1uui_lig
 OpenBabel11021811413D
libRbt.so/2013.1/901 2013/11/27
 23 24  0  0  0  0  0  0  0  0999 V2000
   -6.2675    0.1576    0.2220 C   0  0  0  0  0  0  0  0  0  0  0  0
   -7.5274    1.8384   -1.7878 O   0  0  0  0  0  0  0  0  0  0  0  0
   -6.1503    4.2280    3.2019 O   0  0  0  0  0  0  0  0  0  0  0  0
   -6.8705    2.5245   -2.8609 C   0  0  0  0  0  0  0  0  0  0  0  0
   -7.2904    4.2168    4.0645 C   0  0  0  0  0  0  0  0  0  0  0  0
   -5.1498    0.0122   -0.7675 N   0  0  0  0  0  0  0  0  0  0  0  0
   -7.3809    1.9735   -4.1932 C   0  0  0  0  0  0  0  0  0  0  0  0
   -4.9723   -1.4078   -1.1761 C   0  0  0  0  0  0  0  0  0  0  0  0
   -3.8736    0.5301   -0.2073 C   0  0  0  0  0  0  0  0  0  0  0  0
   -6.6404    2.6433   -5.3551 C   0  0  0  0  0  0  0  0  0  0  0  0
   -4.6204   -2.3103    0.0187 C   0  0  0  0  0  0  0  0  0  0  0  0
   -3.4712   -0.2194    1.0743 C   0  0  0  0  0  0  0  0  0  0  0  0
   -7.3932    2.4270   -6.6108 N   0  0  0  0  0  0  0  0  0  0  0  0
   -4.1984   -1.5191    1.2169 N   0  0  0  0  0  0  0  0  0  0  0  0
   -4.2618   -2.1242    2.4859 C   0  0  0  0  0  0  0  0  0  0  0  0
   -5.0027   -1.5690    3.4867 N   0  0  0  0  0  0  0  0  0  0  0  0
   -3.4801   -3.2013    2.7833 N   0  0  0  0  0  0  0  0  0  0  0  0
   -7.1775    2.4367   -0.5365 C   0  0  0  0  0  0  0  0  0  0  0  0
   -6.5600    1.6544    0.4774 C   0  0  0  0  0  0  0  0  0  0  0  0
   -6.2179    2.2527    1.7219 C   0  0  0  0  0  0  0  0  0  0  0  0
   -6.4933    3.6286    1.9493 C   0  0  0  0  0  0  0  0  0  0  0  0
   -7.1088    4.4074    0.9344 C   0  0  0  0  0  0  0  0  0  0  0  0
   -7.4516    3.8110   -0.3076 C   0  0  0  0  0  0  0  0  0  0  0  0
  2  4  1  0  0  0  0
  3  5  1  0  0  0  0
  4  7  1  0  0  0  0
  6  1  1  0  0  0  0
  7 10  1  0  0  0  0
  8  6  1  0  0  0  0
  8 11  1  0  0  0  0
  9  6  1  0  0  0  0
 10 13  1  0  0  0  0
 11 14  1  0  0  0  0
 12  9  1  0  0  0  0
 14 12  1  0  0  0  0
 14 15  1  0  0  0  0
 15 16  1  0  0  0  0
 15 17  1  0  0  0  0
 18  2  1  0  0  0  0
 18 23  2  0  0  0  0
 19  1  1  0  0  0  0
 19 18  1  0  0  0  0
 20 19  2  0  0  0  0
 21  3  1  0  0  0  0
 21 20  1  0  0  0  0
 22 21  2  0  0  0  0
 22 23  1  0  0  0  0
M  END
>  <CHROM.1>
-173.61098533,-177.15306310,-172.09170931,-163.05506913,-179.19008179,-122.39081033
-60.74290288,-11.77705385,-121.66370528,71.06988363,-95.38774648,-5.88297468
1.10699157,-0.04005606,-0.71547468,1.09905124,-1.83932379

>  <Name>
1uui_lig

>  <RI>
0

>  <Rbt.Current_Directory>
/home/itssahil/PROJECTS/Mol_Feturizer/New_Systems/rnas/1uui

>  <Rbt.Executable>
rbdock ($Id: //depot/dev/client3/rdock/2013.1/src/exe/rbdock.cxx#4 $)

>  <Rbt.Library>
libRbt.so (2013.1, Build901 2013/11/27)

>  <Rbt.Parameter_File>
/export/apps/rDock/src/rDock_2013.1_src/data/scripts/dock_solv.prm

>  <Rbt.Receptor>
prm/pocket_docking_7.prm

>  <SCORE>
-29.8085

>  <SCORE.INTER>
-22.0218

>  <SCORE.INTER.CONST>
1

>  <SCORE.INTER.POLAR>
-3.74207

>  <SCORE.INTER.ROT>
10

>  <SCORE.INTER.SOLV>
6.06016

>  <SCORE.INTER.VDW>
-14.4943

>  <SCORE.INTER.norm>
-0.957468

>  <SCORE.INTRA>
-7.78679

>  <SCORE.INTRA.DIHEDRAL>
-9.5069

>  <SCORE.INTRA.DIHEDRAL.0>
23.4151

>  <SCORE.INTRA.POLAR>
0

>  <SCORE.INTRA.POLAR.0>
0

>  <SCORE.INTRA.REPUL>
0

>  <SCORE.INTRA.REPUL.0>
0

>  <SCORE.INTRA.SOLV>
0.222645

>  <SCORE.INTRA.SOLV.lig_0>
-17.3568

>  <SCORE.INTRA.VDW>
-3.14466

>  <SCORE.INTRA.VDW.0>
1.0768

>  <SCORE.INTRA.norm>
-0.338556

>  <SCORE.RESTR>
0

>  <SCORE.RESTR.CAVITY>
0

>  <SCORE.RESTR.norm>
0

>  <SCORE.SYSTEM>
0

>  <SCORE.SYSTEM.CONST>
0

>  <SCORE.SYSTEM.DIHEDRAL>
0

>  <SCORE.SYSTEM.SOLV>
0

>  <SCORE.SYSTEM.norm>
0

>  <SCORE.heavy>
23

>  <SCORE.norm>
-1.29602

>  <RMSD>
7.705

$$$$
1uui_lig
 OpenBabel11021811413D
libRbt.so/2013.1/901 2013/11/27
 23 24  0  0  0  0  0  0  0  0999 V2000
   -5.7186    1.6094    0.7619 C   0  0  0  0  0  0  0  0  0  0  0  0
   -4.5443    0.6764   -1.7284 O   0  0  0  0  0  0  0  0  0  0  0  0
   -2.1705    5.1970    0.8079 O   0  0  0  0  0  0  0  0  0  0  0  0
   -5.7673    1.0621   -2.3684 C   0  0  0  0  0  0  0  0  0  0  0  0
   -2.9911    6.3478    0.5927 C   0  0  0  0  0  0  0  0  0  0  0  0
   -5.6086    1.6250    2.2576 N   0  0  0  0  0  0  0  0  0  0  0  0
   -6.4141   -0.1734   -2.9963 C   0  0  0  0  0  0  0  0  0  0  0  0
   -4.4242    0.8513    2.7196 C   0  0  0  0  0  0  0  0  0  0  0  0
   -6.8375    1.0728    2.8864 C   0  0  0  0  0  0  0  0  0  0  0  0
   -5.6061   -0.6241   -4.2174 C   0  0  0  0  0  0  0  0  0  0  0  0
   -4.5039   -0.6267    2.3012 C   0  0  0  0  0  0  0  0  0  0  0  0
   -7.0969   -0.3782    2.4464 C   0  0  0  0  0  0  0  0  0  0  0  0
   -5.9918    0.1891   -5.3923 N   0  0  0  0  0  0  0  0  0  0  0  0
   -5.8787   -1.0114    1.8520 N   0  0  0  0  0  0  0  0  0  0  0  0
   -6.0339   -2.1554    1.0473 C   0  0  0  0  0  0  0  0  0  0  0  0
   -7.2670   -2.6981    0.8376 N   0  0  0  0  0  0  0  0  0  0  0  0
   -4.9452   -2.8242    0.5707 N   0  0  0  0  0  0  0  0  0  0  0  0
   -3.9480    1.8081   -1.0883 C   0  0  0  0  0  0  0  0  0  0  0  0
   -4.4878    2.3011    0.1311 C   0  0  0  0  0  0  0  0  0  0  0  0
   -3.8942    3.4296    0.7618 C   0  0  0  0  0  0  0  0  0  0  0  0
   -2.7649    4.0612    0.1733 C   0  0  0  0  0  0  0  0  0  0  0  0
   -2.2275    3.5658   -1.0437 C   0  0  0  0  0  0  0  0  0  0  0  0
   -2.8197    2.4402   -1.6746 C   0  0  0  0  0  0  0  0  0  0  0  0
  2  4  1  0  0  0  0
  3  5  1  0  0  0  0
  4  7  1  0  0  0  0
  6  1  1  0  0  0  0
  7 10  1  0  0  0  0
  8  6  1  0  0  0  0
  8 11  1  0  0  0  0
  9  6  1  0  0  0  0
 10 13  1  0  0  0  0
 11 14  1  0  0  0  0
 12  9  1  0  0  0  0
 14 12  1  0  0  0  0
 14 15  1  0  0  0  0
 15 16  1  0  0  0  0
 15 17  1  0  0  0  0
 18  2  1  0  0  0  0
 18 23  2  0  0  0  0
 19  1  1  0  0  0  0
 19 18  1  0  0  0  0
 20 19  2  0  0  0  0
 21  3  1  0  0  0  0
 21 20  1  0  0  0  0
 22 21  2  0  0  0  0
 22 23  1  0  0  0  0
M  END
>  <CHROM.1>
-177.72125999,-71.28446166,-62.88373420,-82.09443733,-61.82871797,166.70791627
20.65600748,-18.96177905,75.36376817,144.11771594,-75.63007487,-4.90648071
1.06669587,-0.04911943,0.07584412,1.06176473,1.50937920

>  <Name>
1uui_lig

>  <RI>
0

>  <Rbt.Current_Directory>
/home/itssahil/PROJECTS/Mol_Feturizer/New_Systems/rnas/1uui

>  <Rbt.Executable>
rbdock ($Id: //depot/dev/client3/rdock/2013.1/src/exe/rbdock.cxx#4 $)

>  <Rbt.Library>
libRbt.so (2013.1, Build901 2013/11/27)

>  <Rbt.Parameter_File>
/export/apps/rDock/src/rDock_2013.1_src/data/scripts/dock_solv.prm

>  <Rbt.Receptor>
prm/pocket_docking_8.prm

>  <SCORE>
-25.9789

>  <SCORE.INTER>
-21.1564

>  <SCORE.INTER.CONST>
1

>  <SCORE.INTER.POLAR>
-3.85556

>  <SCORE.INTER.ROT>
10

>  <SCORE.INTER.SOLV>
5.67675

>  <SCORE.INTER.VDW>
-13.4113

>  <SCORE.INTER.norm>
-0.919844

>  <SCORE.INTRA>
-4.82245

>  <SCORE.INTRA.DIHEDRAL>
-7.94369

>  <SCORE.INTRA.DIHEDRAL.0>
23.4151

>  <SCORE.INTRA.POLAR>
0

>  <SCORE.INTRA.POLAR.0>
0

>  <SCORE.INTRA.REPUL>
0

>  <SCORE.INTRA.REPUL.0>
0

>  <SCORE.INTRA.SOLV>
0.263895

>  <SCORE.INTRA.SOLV.lig_0>
-17.3568

>  <SCORE.INTRA.VDW>
-0.982555

>  <SCORE.INTRA.VDW.0>
1.0768

>  <SCORE.INTRA.norm>
-0.209672

>  <SCORE.RESTR>
0

>  <SCORE.RESTR.CAVITY>
0

>  <SCORE.RESTR.norm>
0

>  <SCORE.SYSTEM>
0

>  <SCORE.SYSTEM.CONST>
0

>  <SCORE.SYSTEM.DIHEDRAL>
0

>  <SCORE.SYSTEM.SOLV>
0

>  <SCORE.SYSTEM.norm>
0

>  <SCORE.heavy>
23

>  <SCORE.norm>
-1.12952

>  <RMSD>
7.717

$$$$
1uui_lig
 OpenBabel11021811413D
libRbt.so/2013.1/901 2013/11/27
 23 24  0  0  0  0  0  0  0  0999 V2000
   -8.0823   -0.3476   -0.7789 C   0  0  0  0  0  0  0  0  0  0  0  0
  -10.9705   -0.0595   -0.6149 O   0  0  0  0  0  0  0  0  0  0  0  0
   -7.8009    2.5892    3.3147 O   0  0  0  0  0  0  0  0  0  0  0  0
  -10.8914    0.6358   -1.8657 C   0  0  0  0  0  0  0  0  0  0  0  0
   -7.8016    3.9965    3.0623 C   0  0  0  0  0  0  0  0  0  0  0  0
   -6.6606   -0.6466   -0.4062 N   0  0  0  0  0  0  0  0  0  0  0  0
  -11.7484    1.9003   -1.7896 C   0  0  0  0  0  0  0  0  0  0  0  0
   -5.7808    0.5291   -0.6480 C   0  0  0  0  0  0  0  0  0  0  0  0
   -6.1465   -1.8155   -1.1677 C   0  0  0  0  0  0  0  0  0  0  0  0
  -11.8619    2.5402   -3.1769 C   0  0  0  0  0  0  0  0  0  0  0  0
   -5.7681    0.9428   -2.1294 C   0  0  0  0  0  0  0  0  0  0  0  0
   -6.1959   -1.5700   -2.6854 C   0  0  0  0  0  0  0  0  0  0  0  0
  -12.7018    3.7559   -3.0928 N   0  0  0  0  0  0  0  0  0  0  0  0
   -6.3421   -0.1181   -3.0152 N   0  0  0  0  0  0  0  0  0  0  0  0
   -6.8018    0.2429   -4.2954 C   0  0  0  0  0  0  0  0  0  0  0  0
   -7.9852    0.9018   -4.4511 N   0  0  0  0  0  0  0  0  0  0  0  0
   -6.1438   -0.1746   -5.4145 N   0  0  0  0  0  0  0  0  0  0  0  0
  -10.1730    0.6073    0.3677 C   0  0  0  0  0  0  0  0  0  0  0  0
   -8.7562    0.4951    0.3287 C   0  0  0  0  0  0  0  0  0  0  0  0
   -7.9675    1.1564    1.3107 C   0  0  0  0  0  0  0  0  0  0  0  0
   -8.5955    1.9265    2.3270 C   0  0  0  0  0  0  0  0  0  0  0  0
  -10.0103    2.0377    2.3626 C   0  0  0  0  0  0  0  0  0  0  0  0
  -10.7986    1.3772    1.3837 C   0  0  0  0  0  0  0  0  0  0  0  0
  2  4  1  0  0  0  0
  3  5  1  0  0  0  0
  4  7  1  0  0  0  0
  6  1  1  0  0  0  0
  7 10  1  0  0  0  0
  8  6  1  0  0  0  0
  8 11  1  0  0  0  0
  9  6  1  0  0  0  0
 10 13  1  0  0  0  0
 11 14  1  0  0  0  0
 12  9  1  0  0  0  0
 14 12  1  0  0  0  0
 14 15  1  0  0  0  0
 15 16  1  0  0  0  0
 15 17  1  0  0  0  0
 18  2  1  0  0  0  0
 18 23  2  0  0  0  0
 19  1  1  0  0  0  0
 19 18  1  0  0  0  0
 20 19  2  0  0  0  0
 21  3  1  0  0  0  0
 21 20  1  0  0  0  0
 22 21  2  0  0  0  0
 22 23  1  0  0  0  0
M  END
>  <CHROM.1>
-75.70947027,-170.95923529,-78.05165000,179.54565963,63.81231515,-75.50504212
-148.30959206,-104.92969662,-74.90565909,-163.83185561,107.13230396,-8.53061922
0.93457415,-0.99321987,-0.99659998,-0.42356061,1.35851302

>  <Name>
1uui_lig

>  <RI>
0

>  <Rbt.Current_Directory>
/home/itssahil/PROJECTS/Mol_Feturizer/New_Systems/rnas/1uui

>  <Rbt.Executable>
rbdock ($Id: //depot/dev/client3/rdock/2013.1/src/exe/rbdock.cxx#4 $)

>  <Rbt.Library>
libRbt.so (2013.1, Build901 2013/11/27)

>  <Rbt.Parameter_File>
/export/apps/rDock/src/rDock_2013.1_src/data/scripts/dock_solv.prm

>  <Rbt.Receptor>
prm/pocket_docking_8.prm

>  <SCORE>
-25.7786

>  <SCORE.INTER>
-20.1262

>  <SCORE.INTER.CONST>
1

>  <SCORE.INTER.POLAR>
-3.45971

>  <SCORE.INTER.ROT>
10

>  <SCORE.INTER.SOLV>
7.14211

>  <SCORE.INTER.VDW>
-14.5325

>  <SCORE.INTER.norm>
-0.875054

>  <SCORE.INTRA>
-5.65233

>  <SCORE.INTRA.DIHEDRAL>
-7.97585

>  <SCORE.INTRA.DIHEDRAL.0>
23.4151

>  <SCORE.INTRA.POLAR>
0

>  <SCORE.INTRA.POLAR.0>
0

>  <SCORE.INTRA.REPUL>
0

>  <SCORE.INTRA.REPUL.0>
0

>  <SCORE.INTRA.SOLV>
0.0831656

>  <SCORE.INTRA.SOLV.lig_0>
-17.3568

>  <SCORE.INTRA.VDW>
-1.70599

>  <SCORE.INTRA.VDW.0>
1.0768

>  <SCORE.INTRA.norm>
-0.245753

>  <SCORE.RESTR>
0

>  <SCORE.RESTR.CAVITY>
0

>  <SCORE.RESTR.norm>
0

>  <SCORE.SYSTEM>
0

>  <SCORE.SYSTEM.CONST>
0

>  <SCORE.SYSTEM.DIHEDRAL>
0

>  <SCORE.SYSTEM.SOLV>
0

>  <SCORE.SYSTEM.norm>
0

>  <SCORE.heavy>
23

>  <SCORE.norm>
-1.12081

>  <RMSD>
7.746

$$$$
1uui_lig
 OpenBabel11021811413D
libRbt.so/2013.1/901 2013/11/27
 23 24  0  0  0  0  0  0  0  0999 V2000
   -5.2706   -0.3427    0.0119 C   0  0  0  0  0  0  0  0  0  0  0  0
   -7.4698    0.7120   -1.5700 O   0  0  0  0  0  0  0  0  0  0  0  0
   -6.9258    2.5532    3.7982 O   0  0  0  0  0  0  0  0  0  0  0  0
   -7.2192    1.7844   -2.4872 C   0  0  0  0  0  0  0  0  0  0  0  0
   -6.5687    3.9376    3.7963 C   0  0  0  0  0  0  0  0  0  0  0  0
   -6.0060   -1.5521   -0.4839 N   0  0  0  0  0  0  0  0  0  0  0  0
   -7.1911    1.2276   -3.9115 C   0  0  0  0  0  0  0  0  0  0  0  0
   -6.5246   -2.3692    0.6466 C   0  0  0  0  0  0  0  0  0  0  0  0
   -5.1293   -2.3923   -1.3417 C   0  0  0  0  0  0  0  0  0  0  0  0
   -6.8231    2.3380   -4.9007 C   0  0  0  0  0  0  0  0  0  0  0  0
   -5.3919   -2.8849    1.5505 C   0  0  0  0  0  0  0  0  0  0  0  0
   -3.8842   -2.8758   -0.5786 C   0  0  0  0  0  0  0  0  0  0  0  0
   -6.8018    1.7883   -6.2747 N   0  0  0  0  0  0  0  0  0  0  0  0
   -4.0494   -2.7503    0.9031 N   0  0  0  0  0  0  0  0  0  0  0  0
   -2.9006   -2.7581    1.7159 C   0  0  0  0  0  0  0  0  0  0  0  0
   -2.0507   -1.6921    1.7318 N   0  0  0  0  0  0  0  0  0  0  0  0
   -2.5403   -3.8808    2.4010 N   0  0  0  0  0  0  0  0  0  0  0  0
   -7.3290    1.1754   -0.2241 C   0  0  0  0  0  0  0  0  0  0  0  0
   -6.2693    0.6876    0.5884 C   0  0  0  0  0  0  0  0  0  0  0  0
   -6.1360    1.1480    1.9279 C   0  0  0  0  0  0  0  0  0  0  0  0
   -7.0603    2.0928    2.4506 C   0  0  0  0  0  0  0  0  0  0  0  0
   -8.1167    2.5790    1.6364 C   0  0  0  0  0  0  0  0  0  0  0  0
   -8.2514    2.1194    0.2999 C   0  0  0  0  0  0  0  0  0  0  0  0
  2  4  1  0  0  0  0
  3  5  1  0  0  0  0
  4  7  1  0  0  0  0
  6  1  1  0  0  0  0
  7 10  1  0  0  0  0
  8  6  1  0  0  0  0
  8 11  1  0  0  0  0
  9  6  1  0  0  0  0
 10 13  1  0  0  0  0
 11 14  1  0  0  0  0
 12  9  1  0  0  0  0
 14 12  1  0  0  0  0
 14 15  1  0  0  0  0
 15 16  1  0  0  0  0
 15 17  1  0  0  0  0
 18  2  1  0  0  0  0
 18 23  2  0  0  0  0
 19  1  1  0  0  0  0
 19 18  1  0  0  0  0
 20 19  2  0  0  0  0
 21  3  1  0  0  0  0
 21 20  1  0  0  0  0
 22 21  2  0  0  0  0
 22 23  1  0  0  0  0
M  END
>  <CHROM.1>
172.53141524,-175.87535923,-72.23141373,-179.88255252,-67.55161468,-120.13362061
179.72640625,82.30256226,-113.22834536,-56.59553955,112.61051153,-5.86716400
0.00313328,0.02598638,-0.54750135,0.97043716,-1.75612502

>  <Name>
1uui_lig

>  <RI>
0

>  <Rbt.Current_Directory>
/home/itssahil/PROJECTS/Mol_Feturizer/New_Systems/rnas/1uui

>  <Rbt.Executable>
rbdock ($Id: //depot/dev/client3/rdock/2013.1/src/exe/rbdock.cxx#4 $)

>  <Rbt.Library>
libRbt.so (2013.1, Build901 2013/11/27)

>  <Rbt.Parameter_File>
/export/apps/rDock/src/rDock_2013.1_src/data/scripts/dock_solv.prm

>  <Rbt.Receptor>
prm/pocket_docking_8.prm

>  <SCORE>
-30.5015

>  <SCORE.INTER>
-20.4708

>  <SCORE.INTER.CONST>
1

>  <SCORE.INTER.POLAR>
-3.16595

>  <SCORE.INTER.ROT>
10

>  <SCORE.INTER.SOLV>
6.13937

>  <SCORE.INTER.VDW>
-15.4072

>  <SCORE.INTER.norm>
-0.890036

>  <SCORE.INTRA>
-10.0307

>  <SCORE.INTRA.DIHEDRAL>
-10.0882

>  <SCORE.INTRA.DIHEDRAL.0>
23.4151

>  <SCORE.INTRA.POLAR>
-0.619091

>  <SCORE.INTRA.POLAR.0>
0

>  <SCORE.INTRA.REPUL>
0

>  <SCORE.INTRA.REPUL.0>
0

>  <SCORE.INTRA.SOLV>
0.193782

>  <SCORE.INTRA.SOLV.lig_0>
-17.3568

>  <SCORE.INTRA.VDW>
-2.97859

>  <SCORE.INTRA.VDW.0>
1.0768

>  <SCORE.INTRA.norm>
-0.436117

>  <SCORE.RESTR>
0

>  <SCORE.RESTR.CAVITY>
0

>  <SCORE.RESTR.norm>
0

>  <SCORE.SYSTEM>
0

>  <SCORE.SYSTEM.CONST>
0

>  <SCORE.SYSTEM.DIHEDRAL>
0

>  <SCORE.SYSTEM.SOLV>
0

>  <SCORE.SYSTEM.norm>
0

>  <SCORE.heavy>
23

>  <SCORE.norm>
-1.32615

>  <RMSD>
7.772

$$$$
1uui_lig
 OpenBabel11021811413D
libRbt.so/2013.1/901 2013/11/27
 23 24  0  0  0  0  0  0  0  0999 V2000
   -5.6857    1.0300   -0.4745 C   0  0  0  0  0  0  0  0  0  0  0  0
   -5.9887   -1.8613   -0.4588 O   0  0  0  0  0  0  0  0  0  0  0  0
   -4.6202    0.7013    4.4468 O   0  0  0  0  0  0  0  0  0  0  0  0
   -4.7985   -2.1812   -1.1902 C   0  0  0  0  0  0  0  0  0  0  0  0
   -3.3038    1.2498    4.3454 C   0  0  0  0  0  0  0  0  0  0  0  0
   -6.5041    2.2515   -0.1783 N   0  0  0  0  0  0  0  0  0  0  0  0
   -4.1147   -3.3807   -0.5323 C   0  0  0  0  0  0  0  0  0  0  0  0
   -7.9607    1.9582   -0.2614 C   0  0  0  0  0  0  0  0  0  0  0  0
   -6.1667    3.3566   -1.1139 C   0  0  0  0  0  0  0  0  0  0  0  0
   -3.1138   -2.8991    0.5229 C   0  0  0  0  0  0  0  0  0  0  0  0
   -8.3727    1.4843   -1.6656 C   0  0  0  0  0  0  0  0  0  0  0  0
   -6.4233    2.9590   -2.5775 C   0  0  0  0  0  0  0  0  0  0  0  0
   -2.8200   -4.0022    1.4648 N   0  0  0  0  0  0  0  0  0  0  0  0
   -7.3144    1.7622   -2.6866 N   0  0  0  0  0  0  0  0  0  0  0  0
   -7.3251    1.0329   -3.8902 C   0  0  0  0  0  0  0  0  0  0  0  0
   -8.0740    1.4491   -4.9508 N   0  0  0  0  0  0  0  0  0  0  0  0
   -6.6961   -0.1737   -3.9785 N   0  0  0  0  0  0  0  0  0  0  0  0
   -5.6491   -1.2157    0.7717 C   0  0  0  0  0  0  0  0  0  0  0  0
   -5.4896    0.1964    0.8131 C   0  0  0  0  0  0  0  0  0  0  0  0
   -5.1474    0.8335    2.0382 C   0  0  0  0  0  0  0  0  0  0  0  0
   -4.9660    0.0591    3.2162 C   0  0  0  0  0  0  0  0  0  0  0  0
   -5.1273   -1.3506    3.1720 C   0  0  0  0  0  0  0  0  0  0  0  0
   -5.4677   -1.9876    1.9497 C   0  0  0  0  0  0  0  0  0  0  0  0
  2  4  1  0  0  0  0
  3  5  1  0  0  0  0
  4  7  1  0  0  0  0
  6  1  1  0  0  0  0
  7 10  1  0  0  0  0
  8  6  1  0  0  0  0
  8 11  1  0  0  0  0
  9  6  1  0  0  0  0
 10 13  1  0  0  0  0
 11 14  1  0  0  0  0
 12  9  1  0  0  0  0
 14 12  1  0  0  0  0
 14 15  1  0  0  0  0
 15 16  1  0  0  0  0
 15 17  1  0  0  0  0
 18  2  1  0  0  0  0
 18 23  2  0  0  0  0
 19  1  1  0  0  0  0
 19 18  1  0  0  0  0
 20 19  2  0  0  0  0
 21  3  1  0  0  0  0
 21 20  1  0  0  0  0
 22 21  2  0  0  0  0
 22 23  1  0  0  0  0
M  END
>  <CHROM.1>
74.70477006,-90.59284944,-86.05423718,160.10756343,-165.70520292,86.39169646
-1.36594445,-18.23604208,88.03439986,135.63818883,-67.16509917,-5.68980736
0.03662485,-0.09384584,2.79528026,1.06391478,-2.25620508

>  <Name>
1uui_lig

>  <RI>
0

>  <Rbt.Current_Directory>
/home/itssahil/PROJECTS/Mol_Feturizer/New_Systems/rnas/1uui

>  <Rbt.Executable>
rbdock ($Id: //depot/dev/client3/rdock/2013.1/src/exe/rbdock.cxx#4 $)

>  <Rbt.Library>
libRbt.so (2013.1, Build901 2013/11/27)

>  <Rbt.Parameter_File>
/export/apps/rDock/src/rDock_2013.1_src/data/scripts/dock_solv.prm

>  <Rbt.Receptor>
prm/pocket_docking_7.prm

>  <SCORE>
-24.1692

>  <SCORE.INTER>
-21.283

>  <SCORE.INTER.CONST>
1

>  <SCORE.INTER.POLAR>
-3.36966

>  <SCORE.INTER.ROT>
10

>  <SCORE.INTER.SOLV>
6.41555

>  <SCORE.INTER.VDW>
-15.3617

>  <SCORE.INTER.norm>
-0.92535

>  <SCORE.INTRA>
-2.8862

>  <SCORE.INTRA.DIHEDRAL>
-2.88263

>  <SCORE.INTRA.DIHEDRAL.0>
23.4151

>  <SCORE.INTRA.POLAR>
0

>  <SCORE.INTRA.POLAR.0>
0

>  <SCORE.INTRA.REPUL>
0

>  <SCORE.INTRA.REPUL.0>
0

>  <SCORE.INTRA.SOLV>
0.495102

>  <SCORE.INTRA.SOLV.lig_0>
-17.3568

>  <SCORE.INTRA.VDW>
-1.69244

>  <SCORE.INTRA.VDW.0>
1.0768

>  <SCORE.INTRA.norm>
-0.125487

>  <SCORE.RESTR>
0

>  <SCORE.RESTR.CAVITY>
0

>  <SCORE.RESTR.norm>
0

>  <SCORE.SYSTEM>
0

>  <SCORE.SYSTEM.CONST>
0

>  <SCORE.SYSTEM.DIHEDRAL>
0

>  <SCORE.SYSTEM.SOLV>
0

>  <SCORE.SYSTEM.norm>
0

>  <SCORE.heavy>
23

>  <SCORE.norm>
-1.05084

>  <RMSD>
7.811

$$$$
1uui_lig
 OpenBabel11021811413D
libRbt.so/2013.1/901 2013/11/27
 23 24  0  0  0  0  0  0  0  0999 V2000
   -5.6358    0.5774    0.3853 C   0  0  0  0  0  0  0  0  0  0  0  0
   -6.4821    2.9146   -1.1221 O   0  0  0  0  0  0  0  0  0  0  0  0
   -1.2980    3.0063    1.2488 O   0  0  0  0  0  0  0  0  0  0  0  0
   -6.4211    2.3142   -2.4220 C   0  0  0  0  0  0  0  0  0  0  0  0
   -0.3107    2.7244    0.2540 C   0  0  0  0  0  0  0  0  0  0  0  0
   -6.6404    0.8216    1.4719 N   0  0  0  0  0  0  0  0  0  0  0  0
   -7.8267    2.2813   -3.0239 C   0  0  0  0  0  0  0  0  0  0  0  0
   -5.9739    1.0274    2.7865 C   0  0  0  0  0  0  0  0  0  0  0  0
   -7.5987   -0.3106    1.5737 C   0  0  0  0  0  0  0  0  0  0  0  0
   -7.8597    1.3320   -4.2259 C   0  0  0  0  0  0  0  0  0  0  0  0
   -5.1551   -0.2023    3.2148 C   0  0  0  0  0  0  0  0  0  0  0  0
   -6.8807   -1.6354    1.8826 C   0  0  0  0  0  0  0  0  0  0  0  0
   -7.4818    2.0724   -5.4504 N   0  0  0  0  0  0  0  0  0  0  0  0
   -5.4973   -1.4154    2.4081 N   0  0  0  0  0  0  0  0  0  0  0  0
   -4.5767   -2.4787    2.3585 C   0  0  0  0  0  0  0  0  0  0  0  0
   -3.6291   -2.6262    3.3276 N   0  0  0  0  0  0  0  0  0  0  0  0
   -4.5247   -3.3043    1.2744 N   0  0  0  0  0  0  0  0  0  0  0  0
   -5.1803    2.9338   -0.5296 C   0  0  0  0  0  0  0  0  0  0  0  0
   -4.7229    1.8141    0.2175 C   0  0  0  0  0  0  0  0  0  0  0  0
   -3.4292    1.8395    0.8088 C   0  0  0  0  0  0  0  0  0  0  0  0
   -2.5978    2.9817    0.6520 C   0  0  0  0  0  0  0  0  0  0  0  0
   -3.0569    4.0978   -0.0956 C   0  0  0  0  0  0  0  0  0  0  0  0
   -4.3482    4.0739   -0.6853 C   0  0  0  0  0  0  0  0  0  0  0  0
  2  4  1  0  0  0  0
  3  5  1  0  0  0  0
  4  7  1  0  0  0  0
  6  1  1  0  0  0  0
  7 10  1  0  0  0  0
  8  6  1  0  0  0  0
  8 11  1  0  0  0  0
  9  6  1  0  0  0  0
 10 13  1  0  0  0  0
 11 14  1  0  0  0  0
 12  9  1  0  0  0  0
 14 12  1  0  0  0  0
 14 15  1  0  0  0  0
 15 16  1  0  0  0  0
 15 17  1  0  0  0  0
 18  2  1  0  0  0  0
 18 23  2  0  0  0  0
 19  1  1  0  0  0  0
 19 18  1  0  0  0  0
 20 19  2  0  0  0  0
 21  3  1  0  0  0  0
 21 20  1  0  0  0  0
 22 21  2  0  0  0  0
 22 23  1  0  0  0  0
M  END
>  <CHROM.1>
178.95668599,-165.17933312,-62.52536796,-87.80991447,68.52955099,21.46627404
148.39734951,117.58721023,-87.30026850,-80.54116465,100.98105705,-5.10852737
1.03105386,0.24262263,1.23150523,0.56744095,2.37242986

>  <Name>
1uui_lig

>  <RI>
0

>  <Rbt.Current_Directory>
/home/itssahil/PROJECTS/Mol_Feturizer/New_Systems/rnas/1uui

>  <Rbt.Executable>
rbdock ($Id: //depot/dev/client3/rdock/2013.1/src/exe/rbdock.cxx#4 $)

>  <Rbt.Library>
libRbt.so (2013.1, Build901 2013/11/27)

>  <Rbt.Parameter_File>
/export/apps/rDock/src/rDock_2013.1_src/data/scripts/dock_solv.prm

>  <Rbt.Receptor>
prm/pocket_docking_8.prm

>  <SCORE>
-27.6313

>  <SCORE.INTER>
-22.0152

>  <SCORE.INTER.CONST>
1

>  <SCORE.INTER.POLAR>
-3.59484

>  <SCORE.INTER.ROT>
10

>  <SCORE.INTER.SOLV>
6.30458

>  <SCORE.INTER.VDW>
-15.0622

>  <SCORE.INTER.norm>
-0.957183

>  <SCORE.INTRA>
-5.61613

>  <SCORE.INTRA.DIHEDRAL>
-6.33647

>  <SCORE.INTRA.DIHEDRAL.0>
23.4151

>  <SCORE.INTRA.POLAR>
0

>  <SCORE.INTRA.POLAR.0>
0

>  <SCORE.INTRA.REPUL>
0

>  <SCORE.INTRA.REPUL.0>
0

>  <SCORE.INTRA.SOLV>
0.231851

>  <SCORE.INTRA.SOLV.lig_0>
-17.3568

>  <SCORE.INTRA.VDW>
-2.56382

>  <SCORE.INTRA.VDW.0>
1.0768

>  <SCORE.INTRA.norm>
-0.24418

>  <SCORE.RESTR>
0

>  <SCORE.RESTR.CAVITY>
0

>  <SCORE.RESTR.norm>
0

>  <SCORE.SYSTEM>
0

>  <SCORE.SYSTEM.CONST>
0

>  <SCORE.SYSTEM.DIHEDRAL>
0

>  <SCORE.SYSTEM.SOLV>
0

>  <SCORE.SYSTEM.norm>
0

>  <SCORE.heavy>
23

>  <SCORE.norm>
-1.20136

>  <RMSD>
7.857

$$$$
1uui_lig
 OpenBabel11021811413D
libRbt.so/2013.1/901 2013/11/27
 23 24  0  0  0  0  0  0  0  0999 V2000
   -5.0429   -0.0993    0.8143 C   0  0  0  0  0  0  0  0  0  0  0  0
   -7.1890    1.3409   -0.5166 O   0  0  0  0  0  0  0  0  0  0  0  0
   -2.5112    4.2642    0.9243 O   0  0  0  0  0  0  0  0  0  0  0  0
   -6.9905    0.6760   -1.7705 C   0  0  0  0  0  0  0  0  0  0  0  0
   -1.7339    4.5319   -0.2454 C   0  0  0  0  0  0  0  0  0  0  0  0
   -5.9575   -0.3167    1.9829 N   0  0  0  0  0  0  0  0  0  0  0  0
   -7.2516    1.6650   -2.9075 C   0  0  0  0  0  0  0  0  0  0  0  0
   -5.1877   -0.5151    3.2410 C   0  0  0  0  0  0  0  0  0  0  0  0
   -6.8431   -1.4888    1.7535 C   0  0  0  0  0  0  0  0  0  0  0  0
   -7.3270    0.9190   -4.2435 C   0  0  0  0  0  0  0  0  0  0  0  0
   -4.2714   -1.7483    3.1660 C   0  0  0  0  0  0  0  0  0  0  0  0
   -6.0328   -2.7789    1.5408 C   0  0  0  0  0  0  0  0  0  0  0  0
   -7.5098    1.8926   -5.3432 N   0  0  0  0  0  0  0  0  0  0  0  0
   -4.6212   -2.6407    2.0168 N   0  0  0  0  0  0  0  0  0  0  0  0
   -3.6550   -3.5483    1.5443 C   0  0  0  0  0  0  0  0  0  0  0  0
   -2.6690   -4.0075    2.3664 N   0  0  0  0  0  0  0  0  0  0  0  0
   -3.6024   -3.8841    0.2237 N   0  0  0  0  0  0  0  0  0  0  0  0
   -6.0128    2.0714   -0.1575 C   0  0  0  0  0  0  0  0  0  0  0  0
   -4.9371    1.4101    0.4956 C   0  0  0  0  0  0  0  0  0  0  0  0
   -3.7711    2.1418    0.8548 C   0  0  0  0  0  0  0  0  0  0  0  0
   -3.6836    3.5297    0.5607 C   0  0  0  0  0  0  0  0  0  0  0  0
   -4.7589    4.1870   -0.0927 C   0  0  0  0  0  0  0  0  0  0  0  0
   -5.9235    3.4580   -0.4506 C   0  0  0  0  0  0  0  0  0  0  0  0
  2  4  1  0  0  0  0
  3  5  1  0  0  0  0
  4  7  1  0  0  0  0
  6  1  1  0  0  0  0
  7 10  1  0  0  0  0
  8  6  1  0  0  0  0
  8 11  1  0  0  0  0
  9  6  1  0  0  0  0
 10 13  1  0  0  0  0
 11 14  1  0  0  0  0
 12  9  1  0  0  0  0
 14 12  1  0  0  0  0
 14 15  1  0  0  0  0
 15 16  1  0  0  0  0
 15 17  1  0  0  0  0
 18  2  1  0  0  0  0
 18 23  2  0  0  0  0
 19  1  1  0  0  0  0
 19 18  1  0  0  0  0
 20 19  2  0  0  0  0
 21  3  1  0  0  0  0
 21 20  1  0  0  0  0
 22 21  2  0  0  0  0
 22 23  1  0  0  0  0
M  END
>  <CHROM.1>
-82.54162375,-168.52099185,-99.49264070,-177.09634887,67.30270512,25.84875738
-170.02065616,126.43412663,-83.65419314,-75.29046957,105.54209866,-5.10630845
0.43308284,0.20783488,-1.25378453,-0.85208865,-0.38133922

>  <Name>
1uui_lig

>  <RI>
0

>  <Rbt.Current_Directory>
/home/itssahil/PROJECTS/Mol_Feturizer/New_Systems/rnas/1uui

>  <Rbt.Executable>
rbdock ($Id: //depot/dev/client3/rdock/2013.1/src/exe/rbdock.cxx#4 $)

>  <Rbt.Library>
libRbt.so (2013.1, Build901 2013/11/27)

>  <Rbt.Parameter_File>
/export/apps/rDock/src/rDock_2013.1_src/data/scripts/dock_solv.prm

>  <Rbt.Receptor>
prm/pocket_docking_8.prm

>  <SCORE>
-30.6858

>  <SCORE.INTER>
-25.9931

>  <SCORE.INTER.CONST>
1

>  <SCORE.INTER.POLAR>
-4.22511

>  <SCORE.INTER.ROT>
10

>  <SCORE.INTER.SOLV>
6.44072

>  <SCORE.INTER.VDW>
-15.6586

>  <SCORE.INTER.norm>
-1.13013

>  <SCORE.INTRA>
-4.69268

>  <SCORE.INTRA.DIHEDRAL>
-4.38807

>  <SCORE.INTRA.DIHEDRAL.0>
23.4151

>  <SCORE.INTRA.POLAR>
0

>  <SCORE.INTRA.POLAR.0>
0

>  <SCORE.INTRA.REPUL>
0

>  <SCORE.INTRA.REPUL.0>
0

>  <SCORE.INTRA.SOLV>
0.0878238

>  <SCORE.INTRA.SOLV.lig_0>
-17.3568

>  <SCORE.INTRA.VDW>
-2.54256

>  <SCORE.INTRA.VDW.0>
1.0768

>  <SCORE.INTRA.norm>
-0.20403

>  <SCORE.RESTR>
0

>  <SCORE.RESTR.CAVITY>
0

>  <SCORE.RESTR.norm>
0

>  <SCORE.SYSTEM>
0

>  <SCORE.SYSTEM.CONST>
0

>  <SCORE.SYSTEM.DIHEDRAL>
0

>  <SCORE.SYSTEM.SOLV>
0

>  <SCORE.SYSTEM.norm>
0

>  <SCORE.heavy>
23

>  <SCORE.norm>
-1.33416

>  <RMSD>
7.918

$$$$
1uui_lig
 OpenBabel11021811413D
libRbt.so/2013.1/901 2013/11/27
 23 24  0  0  0  0  0  0  0  0999 V2000
   -5.1130    1.4942   -0.7770 C   0  0  0  0  0  0  0  0  0  0  0  0
   -5.3663   -1.1653    0.3693 O   0  0  0  0  0  0  0  0  0  0  0  0
   -5.9840    3.3070    3.8508 O   0  0  0  0  0  0  0  0  0  0  0  0
   -3.9909   -1.5662    0.3302 C   0  0  0  0  0  0  0  0  0  0  0  0
   -7.2876    3.8695    3.6826 C   0  0  0  0  0  0  0  0  0  0  0  0
   -5.8075    2.7299   -1.2671 N   0  0  0  0  0  0  0  0  0  0  0  0
   -3.9156   -3.0937    0.3197 C   0  0  0  0  0  0  0  0  0  0  0  0
   -7.2319    2.4530   -1.5976 C   0  0  0  0  0  0  0  0  0  0  0  0
   -5.1205    3.2867   -2.4623 C   0  0  0  0  0  0  0  0  0  0  0  0
   -4.1097   -3.6373    1.7389 C   0  0  0  0  0  0  0  0  0  0  0  0
   -7.3699    1.4015   -2.7116 C   0  0  0  0  0  0  0  0  0  0  0  0
   -5.0849    2.2738   -3.6194 C   0  0  0  0  0  0  0  0  0  0  0  0
   -2.9598   -3.2399    2.5816 N   0  0  0  0  0  0  0  0  0  0  0  0
   -6.0782    1.1710   -3.4314 N   0  0  0  0  0  0  0  0  0  0  0  0
   -5.9093   -0.0236   -4.1559 C   0  0  0  0  0  0  0  0  0  0  0  0
   -5.3281   -1.1131   -3.5779 N   0  0  0  0  0  0  0  0  0  0  0  0
   -6.1987   -0.0771   -5.4874 N   0  0  0  0  0  0  0  0  0  0  0  0
   -5.5248   -0.0416    1.2402 C   0  0  0  0  0  0  0  0  0  0  0  0
   -5.4088    1.2785    0.7253 C   0  0  0  0  0  0  0  0  0  0  0  0
   -5.5627    2.3929    1.5961 C   0  0  0  0  0  0  0  0  0  0  0  0
   -5.8315    2.1853    2.9764 C   0  0  0  0  0  0  0  0  0  0  0  0
   -5.9479    0.8659    3.4872 C   0  0  0  0  0  0  0  0  0  0  0  0
   -5.7935   -0.2470    2.6193 C   0  0  0  0  0  0  0  0  0  0  0  0
  2  4  1  0  0  0  0
  3  5  1  0  0  0  0
  4  7  1  0  0  0  0
  6  1  1  0  0  0  0
  7 10  1  0  0  0  0
  8  6  1  0  0  0  0
  8 11  1  0  0  0  0
  9  6  1  0  0  0  0
 10 13  1  0  0  0  0
 11 14  1  0  0  0  0
 12  9  1  0  0  0  0
 14 12  1  0  0  0  0
 14 15  1  0  0  0  0
 15 16  1  0  0  0  0
 15 17  1  0  0  0  0
 18  2  1  0  0  0  0
 18 23  2  0  0  0  0
 19  1  1  0  0  0  0
 19 18  1  0  0  0  0
 20 19  2  0  0  0  0
 21  3  1  0  0  0  0
 21 20  1  0  0  0  0
 22 21  2  0  0  0  0
 22 23  1  0  0  0  0
M  END
>  <CHROM.1>
140.20701155,-79.66499281,-82.25105273,-66.87817208,62.49687939,-93.09759582
-85.66378354,114.88497744,90.02110149,145.89651209,78.27294045,-5.49797156
0.59114250,-0.19146601,1.83262929,1.18935025,-1.74134080

>  <Name>
1uui_lig

>  <RI>
0

>  <Rbt.Current_Directory>
/home/itssahil/PROJECTS/Mol_Feturizer/New_Systems/rnas/1uui

>  <Rbt.Executable>
rbdock ($Id: //depot/dev/client3/rdock/2013.1/src/exe/rbdock.cxx#4 $)

>  <Rbt.Library>
libRbt.so (2013.1, Build901 2013/11/27)

>  <Rbt.Parameter_File>
/export/apps/rDock/src/rDock_2013.1_src/data/scripts/dock_solv.prm

>  <Rbt.Receptor>
prm/pocket_docking_7.prm

>  <SCORE>
-22.1002

>  <SCORE.INTER>
-18.4008

>  <SCORE.INTER.CONST>
1

>  <SCORE.INTER.POLAR>
-2.83802

>  <SCORE.INTER.ROT>
10

>  <SCORE.INTER.SOLV>
6.24

>  <SCORE.INTER.VDW>
-15.1538

>  <SCORE.INTER.norm>
-0.800035

>  <SCORE.INTRA>
-3.69942

>  <SCORE.INTRA.DIHEDRAL>
-1.72578

>  <SCORE.INTRA.DIHEDRAL.0>
23.4151

>  <SCORE.INTRA.POLAR>
0

>  <SCORE.INTRA.POLAR.0>
0

>  <SCORE.INTRA.REPUL>
0

>  <SCORE.INTRA.REPUL.0>
0

>  <SCORE.INTRA.SOLV>
0.380691

>  <SCORE.INTRA.SOLV.lig_0>
-17.3568

>  <SCORE.INTRA.VDW>
-3.02688

>  <SCORE.INTRA.VDW.0>
1.0768

>  <SCORE.INTRA.norm>
-0.160844

>  <SCORE.RESTR>
0

>  <SCORE.RESTR.CAVITY>
0

>  <SCORE.RESTR.norm>
0

>  <SCORE.SYSTEM>
0

>  <SCORE.SYSTEM.CONST>
0

>  <SCORE.SYSTEM.DIHEDRAL>
0

>  <SCORE.SYSTEM.SOLV>
0

>  <SCORE.SYSTEM.norm>
0

>  <SCORE.heavy>
23

>  <SCORE.norm>
-0.96088

>  <RMSD>
8.012

$$$$
1uui_lig
 OpenBabel11021811413D
libRbt.so/2013.1/901 2013/11/27
 23 24  0  0  0  0  0  0  0  0999 V2000
   -5.7599   -2.1529   -1.7792 C   0  0  0  0  0  0  0  0  0  0  0  0
   -5.4600   -3.0758    0.9612 O   0  0  0  0  0  0  0  0  0  0  0  0
   -9.6379    0.6387   -0.1574 O   0  0  0  0  0  0  0  0  0  0  0  0
   -4.6077   -2.5547    1.9888 C   0  0  0  0  0  0  0  0  0  0  0  0
  -10.6287    0.0138   -0.9771 C   0  0  0  0  0  0  0  0  0  0  0  0
   -4.3348   -1.8229   -1.4477 N   0  0  0  0  0  0  0  0  0  0  0  0
   -3.4788   -3.5517    2.2552 C   0  0  0  0  0  0  0  0  0  0  0  0
   -4.2034   -0.4205   -0.9676 C   0  0  0  0  0  0  0  0  0  0  0  0
   -3.4539   -2.0275   -2.6278 C   0  0  0  0  0  0  0  0  0  0  0  0
   -2.6089   -3.7045    1.0035 C   0  0  0  0  0  0  0  0  0  0  0  0
   -4.6528    0.5959   -2.0310 C   0  0  0  0  0  0  0  0  0  0  0  0
   -3.8801   -1.1452   -3.8136 C   0  0  0  0  0  0  0  0  0  0  0  0
   -3.2185   -4.7033    0.0972 N   0  0  0  0  0  0  0  0  0  0  0  0
   -4.7754   -0.0250   -3.3871 N   0  0  0  0  0  0  0  0  0  0  0  0
   -5.5672    0.6164   -4.3577 C   0  0  0  0  0  0  0  0  0  0  0  0
   -6.8733    0.2669   -4.5340 N   0  0  0  0  0  0  0  0  0  0  0  0
   -5.0133    1.5042   -5.2321 N   0  0  0  0  0  0  0  0  0  0  0  0
   -6.5099   -2.1468    0.6774 C   0  0  0  0  0  0  0  0  0  0  0  0
   -6.6951   -1.6666   -0.6479 C   0  0  0  0  0  0  0  0  0  0  0  0
   -7.7379   -0.7392   -0.9244 C   0  0  0  0  0  0  0  0  0  0  0  0
   -8.5911   -0.2952    0.1222 C   0  0  0  0  0  0  0  0  0  0  0  0
   -8.4044   -0.7775    1.4442 C   0  0  0  0  0  0  0  0  0  0  0  0
   -7.3634   -1.7022    1.7216 C   0  0  0  0  0  0  0  0  0  0  0  0
  2  4  1  0  0  0  0
  3  5  1  0  0  0  0
  4  7  1  0  0  0  0
  6  1  1  0  0  0  0
  7 10  1  0  0  0  0
  8  6  1  0  0  0  0
  8 11  1  0  0  0  0
  9  6  1  0  0  0  0
 10 13  1  0  0  0  0
 11 14  1  0  0  0  0
 12  9  1  0  0  0  0
 14 12  1  0  0  0  0
 14 15  1  0  0  0  0
 15 16  1  0  0  0  0
 15 17  1  0  0  0  0
 18  2  1  0  0  0  0
 18 23  2  0  0  0  0
 19  1  1  0  0  0  0
 19 18  1  0  0  0  0
 20 19  2  0  0  0  0
 21  3  1  0  0  0  0
 21 20  1  0  0  0  0
 22 21  2  0  0  0  0
 22 23  1  0  0  0  0
M  END
>  <CHROM.1>
-178.90370618,63.51299592,-46.38928305,-84.50236652,-76.79886571,-94.23272165
-121.67898432,83.75540431,123.72706679,-58.45082286,67.73970779,-5.76871332
-1.26674689,-1.03238853,-1.11638876,0.40539063,-1.04686897

>  <Name>
1uui_lig

>  <RI>
0

>  <Rbt.Current_Directory>
/home/itssahil/PROJECTS/Mol_Feturizer/New_Systems/rnas/1uui

>  <Rbt.Executable>
rbdock ($Id: //depot/dev/client3/rdock/2013.1/src/exe/rbdock.cxx#4 $)

>  <Rbt.Library>
libRbt.so (2013.1, Build901 2013/11/27)

>  <Rbt.Parameter_File>
/export/apps/rDock/src/rDock_2013.1_src/data/scripts/dock_solv.prm

>  <Rbt.Receptor>
prm/pocket_docking_8.prm

>  <SCORE>
-33.694

>  <SCORE.INTER>
-24.4714

>  <SCORE.INTER.CONST>
1

>  <SCORE.INTER.POLAR>
-3.0458

>  <SCORE.INTER.ROT>
10

>  <SCORE.INTER.SOLV>
7.14569

>  <SCORE.INTER.VDW>
-18.8102

>  <SCORE.INTER.norm>
-1.06397

>  <SCORE.INTRA>
-9.22262

>  <SCORE.INTRA.DIHEDRAL>
-8.71954

>  <SCORE.INTRA.DIHEDRAL.0>
23.4151

>  <SCORE.INTRA.POLAR>
-0.73906

>  <SCORE.INTRA.POLAR.0>
0

>  <SCORE.INTRA.REPUL>
0

>  <SCORE.INTRA.REPUL.0>
0

>  <SCORE.INTRA.SOLV>
1.41775

>  <SCORE.INTRA.SOLV.lig_0>
-17.3568

>  <SCORE.INTRA.VDW>
-3.05892

>  <SCORE.INTRA.VDW.0>
1.0768

>  <SCORE.INTRA.norm>
-0.400984

>  <SCORE.RESTR>
0

>  <SCORE.RESTR.CAVITY>
0

>  <SCORE.RESTR.norm>
0

>  <SCORE.SYSTEM>
0

>  <SCORE.SYSTEM.CONST>
0

>  <SCORE.SYSTEM.DIHEDRAL>
0

>  <SCORE.SYSTEM.SOLV>
0

>  <SCORE.SYSTEM.norm>
0

>  <SCORE.heavy>
23

>  <SCORE.norm>
-1.46496

>  <RMSD>
8.062

$$$$
1uui_lig
 OpenBabel11021811413D
libRbt.so/2013.1/901 2013/11/27
 23 24  0  0  0  0  0  0  0  0999 V2000
   -5.3905   -0.1634   -0.8344 C   0  0  0  0  0  0  0  0  0  0  0  0
   -4.4207    1.6117   -2.9225 O   0  0  0  0  0  0  0  0  0  0  0  0
   -6.9072    3.9673    1.6352 O   0  0  0  0  0  0  0  0  0  0  0  0
   -4.6761    2.4111   -4.0843 C   0  0  0  0  0  0  0  0  0  0  0  0
   -8.3124    3.7063    1.5979 C   0  0  0  0  0  0  0  0  0  0  0  0
   -4.0041   -0.5245   -1.2784 N   0  0  0  0  0  0  0  0  0  0  0  0
   -6.0697    2.0816   -4.6213 C   0  0  0  0  0  0  0  0  0  0  0  0
   -3.8153   -2.0003   -1.3108 C   0  0  0  0  0  0  0  0  0  0  0  0
   -2.9844    0.0864   -0.3855 C   0  0  0  0  0  0  0  0  0  0  0  0
   -6.2796    2.7551   -5.9812 C   0  0  0  0  0  0  0  0  0  0  0  0
   -4.0108   -2.6356    0.0762 C   0  0  0  0  0  0  0  0  0  0  0  0
   -3.1516   -0.3817    1.0702 C   0  0  0  0  0  0  0  0  0  0  0  0
   -7.6390    2.4483   -6.4797 N   0  0  0  0  0  0  0  0  0  0  0  0
   -3.9925   -1.6151    1.1707 N   0  0  0  0  0  0  0  0  0  0  0  0
   -4.5733   -1.9399    2.4107 C   0  0  0  0  0  0  0  0  0  0  0  0
   -5.9067   -1.7539    2.6260 N   0  0  0  0  0  0  0  0  0  0  0  0
   -3.7964   -2.3197    3.4651 N   0  0  0  0  0  0  0  0  0  0  0  0
   -5.0415    2.2007   -1.7762 C   0  0  0  0  0  0  0  0  0  0  0  0
   -5.5319    1.3729   -0.7296 C   0  0  0  0  0  0  0  0  0  0  0  0
   -6.1526    1.9630    0.4064 C   0  0  0  0  0  0  0  0  0  0  0  0
   -6.2812    3.3759    0.4931 C   0  0  0  0  0  0  0  0  0  0  0  0
   -5.7893    4.1998   -0.5531 C   0  0  0  0  0  0  0  0  0  0  0  0
   -5.1707    3.6120   -1.6878 C   0  0  0  0  0  0  0  0  0  0  0  0
  2  4  1  0  0  0  0
  3  5  1  0  0  0  0
  4  7  1  0  0  0  0
  6  1  1  0  0  0  0
  7 10  1  0  0  0  0
  8  6  1  0  0  0  0
  8 11  1  0  0  0  0
  9  6  1  0  0  0  0
 10 13  1  0  0  0  0
 11 14  1  0  0  0  0
 12  9  1  0  0  0  0
 14 12  1  0  0  0  0
 14 15  1  0  0  0  0
 15 16  1  0  0  0  0
 15 17  1  0  0  0  0
 18  2  1  0  0  0  0
 18 23  2  0  0  0  0
 19  1  1  0  0  0  0
 19 18  1  0  0  0  0
 20 19  2  0  0  0  0
 21  3  1  0  0  0  0
 21 20  1  0  0  0  0
 22 21  2  0  0  0  0
 22 23  1  0  0  0  0
M  END
>  <CHROM.1>
-81.10116625,-171.11004936,176.65661463,-179.04093815,-48.41215436,-86.20467273
-23.71587495,95.53356398,147.84080355,45.85678381,-71.37585407,-5.23596891
0.94214182,-0.78233578,-1.03095111,1.05580138,-1.42314966

>  <Name>
1uui_lig

>  <RI>
0

>  <Rbt.Current_Directory>
/home/itssahil/PROJECTS/Mol_Feturizer/New_Systems/rnas/1uui

>  <Rbt.Executable>
rbdock ($Id: //depot/dev/client3/rdock/2013.1/src/exe/rbdock.cxx#4 $)

>  <Rbt.Library>
libRbt.so (2013.1, Build901 2013/11/27)

>  <Rbt.Parameter_File>
/export/apps/rDock/src/rDock_2013.1_src/data/scripts/dock_solv.prm

>  <Rbt.Receptor>
prm/pocket_docking_7.prm

>  <SCORE>
-25.4959

>  <SCORE.INTER>
-18.0067

>  <SCORE.INTER.CONST>
1

>  <SCORE.INTER.POLAR>
-3.79997

>  <SCORE.INTER.ROT>
10

>  <SCORE.INTER.SOLV>
6.14003

>  <SCORE.INTER.VDW>
-11.6512

>  <SCORE.INTER.norm>
-0.782899

>  <SCORE.INTRA>
-7.49986

>  <SCORE.INTRA.DIHEDRAL>
-10.8713

>  <SCORE.INTRA.DIHEDRAL.0>
23.4151

>  <SCORE.INTRA.POLAR>
-0.538371

>  <SCORE.INTRA.POLAR.0>
0

>  <SCORE.INTRA.REPUL>
0

>  <SCORE.INTRA.REPUL.0>
0

>  <SCORE.INTRA.SOLV>
0.355659

>  <SCORE.INTRA.SOLV.lig_0>
-17.3568

>  <SCORE.INTRA.VDW>
-0.411575

>  <SCORE.INTRA.VDW.0>
1.0768

>  <SCORE.INTRA.norm>
-0.326081

>  <SCORE.RESTR>
0.0106784

>  <SCORE.RESTR.CAVITY>
0.0106784

>  <SCORE.RESTR.norm>
0.000464279

>  <SCORE.SYSTEM>
0

>  <SCORE.SYSTEM.CONST>
0

>  <SCORE.SYSTEM.DIHEDRAL>
0

>  <SCORE.SYSTEM.SOLV>
0

>  <SCORE.SYSTEM.norm>
0

>  <SCORE.heavy>
23

>  <SCORE.norm>
-1.10852

>  <RMSD>
8.069

$$$$
1uui_lig
 OpenBabel11021811413D
libRbt.so/2013.1/901 2013/11/27
 23 24  0  0  0  0  0  0  0  0999 V2000
   -5.7340    1.7946   -1.1812 C   0  0  0  0  0  0  0  0  0  0  0  0
   -7.2084   -0.6245   -0.5291 O   0  0  0  0  0  0  0  0  0  0  0  0
   -5.8788    2.9172    3.7362 O   0  0  0  0  0  0  0  0  0  0  0  0
   -8.6314   -0.7620   -0.6304 C   0  0  0  0  0  0  0  0  0  0  0  0
   -6.9036    3.9040    3.8775 C   0  0  0  0  0  0  0  0  0  0  0  0
   -5.5924    3.2781   -1.3504 N   0  0  0  0  0  0  0  0  0  0  0  0
   -9.2296    0.5652   -1.0991 C   0  0  0  0  0  0  0  0  0  0  0  0
   -6.9204    3.9337   -1.4965 C   0  0  0  0  0  0  0  0  0  0  0  0
   -4.7480    3.5999   -2.5310 C   0  0  0  0  0  0  0  0  0  0  0  0
  -10.7490    0.4326   -1.2439 C   0  0  0  0  0  0  0  0  0  0  0  0
   -7.6813    3.4223   -2.7316 C   0  0  0  0  0  0  0  0  0  0  0  0
   -5.3469    3.0311   -3.8287 C   0  0  0  0  0  0  0  0  0  0  0  0
  -11.3544    0.2090    0.0880 N   0  0  0  0  0  0  0  0  0  0  0  0
   -6.7905    2.6713   -3.6707 N   0  0  0  0  0  0  0  0  0  0  0  0
   -7.3734    1.7865   -4.5969 C   0  0  0  0  0  0  0  0  0  0  0  0
   -7.8576    2.2426   -5.7871 N   0  0  0  0  0  0  0  0  0  0  0  0
   -7.5889    0.4800   -4.2709 N   0  0  0  0  0  0  0  0  0  0  0  0
   -6.8770    0.2675    0.5389 C   0  0  0  0  0  0  0  0  0  0  0  0
   -6.1562    1.4628    0.2689 C   0  0  0  0  0  0  0  0  0  0  0  0
   -5.8249    2.3447    1.3349 C   0  0  0  0  0  0  0  0  0  0  0  0
   -6.2143    2.0302    2.6653 C   0  0  0  0  0  0  0  0  0  0  0  0
   -6.9352    0.8366    2.9316 C   0  0  0  0  0  0  0  0  0  0  0  0
   -7.2653   -0.0448    1.8686 C   0  0  0  0  0  0  0  0  0  0  0  0
  2  4  1  0  0  0  0
  3  5  1  0  0  0  0
  4  7  1  0  0  0  0
  6  1  1  0  0  0  0
  7 10  1  0  0  0  0
  8  6  1  0  0  0  0
  8 11  1  0  0  0  0
  9  6  1  0  0  0  0
 10 13  1  0  0  0  0
 11 14  1  0  0  0  0
 12  9  1  0  0  0  0
 14 12  1  0  0  0  0
 14 15  1  0  0  0  0
 15 16  1  0  0  0  0
 15 17  1  0  0  0  0
 18  2  1  0  0  0  0
 18 23  2  0  0  0  0
 19  1  1  0  0  0  0
 19 18  1  0  0  0  0
 20 19  2  0  0  0  0
 21  3  1  0  0  0  0
 21 20  1  0  0  0  0
 22 21  2  0  0  0  0
 22 23  1  0  0  0  0
M  END
>  <CHROM.1>
67.92670100,178.78119840,-78.02320212,65.95111686,58.85516728,84.06418037
141.64096357,-175.18911121,-119.39638322,153.62260064,87.85886615,-7.21953901
1.72905244,-0.81625202,-1.65250956,0.69483181,1.65596382

>  <Name>
1uui_lig

>  <RI>
0

>  <Rbt.Current_Directory>
/home/itssahil/PROJECTS/Mol_Feturizer/New_Systems/rnas/1uui

>  <Rbt.Executable>
rbdock ($Id: //depot/dev/client3/rdock/2013.1/src/exe/rbdock.cxx#4 $)

>  <Rbt.Library>
libRbt.so (2013.1, Build901 2013/11/27)

>  <Rbt.Parameter_File>
/export/apps/rDock/src/rDock_2013.1_src/data/scripts/dock_solv.prm

>  <Rbt.Receptor>
prm/pocket_docking_8.prm

>  <SCORE>
-23.1883

>  <SCORE.INTER>
-16.1443

>  <SCORE.INTER.CONST>
1

>  <SCORE.INTER.POLAR>
-3.19562

>  <SCORE.INTER.ROT>
10

>  <SCORE.INTER.SOLV>
6.20622

>  <SCORE.INTER.VDW>
-12.4462

>  <SCORE.INTER.norm>
-0.701928

>  <SCORE.INTRA>
-7.04397

>  <SCORE.INTRA.DIHEDRAL>
-9.27608

>  <SCORE.INTRA.DIHEDRAL.0>
23.4151

>  <SCORE.INTRA.POLAR>
0

>  <SCORE.INTRA.POLAR.0>
0

>  <SCORE.INTRA.REPUL>
0

>  <SCORE.INTRA.REPUL.0>
0

>  <SCORE.INTRA.SOLV>
0.569793

>  <SCORE.INTRA.SOLV.lig_0>
-17.3568

>  <SCORE.INTRA.VDW>
-2.69083

>  <SCORE.INTRA.VDW.0>
1.0768

>  <SCORE.INTRA.norm>
-0.30626

>  <SCORE.RESTR>
0

>  <SCORE.RESTR.CAVITY>
0

>  <SCORE.RESTR.norm>
0

>  <SCORE.SYSTEM>
0

>  <SCORE.SYSTEM.CONST>
0

>  <SCORE.SYSTEM.DIHEDRAL>
0

>  <SCORE.SYSTEM.SOLV>
0

>  <SCORE.SYSTEM.norm>
0

>  <SCORE.heavy>
23

>  <SCORE.norm>
-1.00819

>  <RMSD>
8.070

$$$$
1uui_lig
 OpenBabel11021811413D
libRbt.so/2013.1/901 2013/11/27
 23 24  0  0  0  0  0  0  0  0999 V2000
   -4.2707   -0.0096   -0.3136 C   0  0  0  0  0  0  0  0  0  0  0  0
   -7.1541   -0.3595   -0.1916 O   0  0  0  0  0  0  0  0  0  0  0  0
   -4.8913    1.4179   -5.1135 O   0  0  0  0  0  0  0  0  0  0  0  0
   -8.2743    0.4647    0.1548 C   0  0  0  0  0  0  0  0  0  0  0  0
   -5.4048    2.7136   -5.4318 C   0  0  0  0  0  0  0  0  0  0  0  0
   -2.8312   -0.0254   -0.7343 N   0  0  0  0  0  0  0  0  0  0  0  0
   -8.9512   -0.1097    1.4002 C   0  0  0  0  0  0  0  0  0  0  0  0
   -2.5074   -1.2575   -1.5036 C   0  0  0  0  0  0  0  0  0  0  0  0
   -1.9318    0.0731    0.4455 C   0  0  0  0  0  0  0  0  0  0  0  0
  -10.2221    0.6844    1.7187 C   0  0  0  0  0  0  0  0  0  0  0  0
   -2.7351   -2.5312   -0.6719 C   0  0  0  0  0  0  0  0  0  0  0  0
   -2.1511   -1.0927    1.4248 C   0  0  0  0  0  0  0  0  0  0  0  0
  -11.3043   -0.2491    2.1032 N   0  0  0  0  0  0  0  0  0  0  0  0
   -2.8813   -2.2323    0.7872 N   0  0  0  0  0  0  0  0  0  0  0  0
   -3.5102   -3.1814    1.6142 C   0  0  0  0  0  0  0  0  0  0  0  0
   -2.7740   -4.0271    2.3899 N   0  0  0  0  0  0  0  0  0  0  0  0
   -4.8600   -3.3677    1.5583 N   0  0  0  0  0  0  0  0  0  0  0  0
   -6.5837    0.0827   -1.4267 C   0  0  0  0  0  0  0  0  0  0  0  0
   -5.1783    0.2688   -1.5341 C   0  0  0  0  0  0  0  0  0  0  0  0
   -4.6161    0.7130   -2.7631 C   0  0  0  0  0  0  0  0  0  0  0  0
   -5.4582    0.9695   -3.8791 C   0  0  0  0  0  0  0  0  0  0  0  0
   -6.8610    0.7815   -3.7690 C   0  0  0  0  0  0  0  0  0  0  0  0
   -7.4234    0.3393   -2.5427 C   0  0  0  0  0  0  0  0  0  0  0  0
  2  4  1  0  0  0  0
  3  5  1  0  0  0  0
  4  7  1  0  0  0  0
  6  1  1  0  0  0  0
  7 10  1  0  0  0  0
  8  6  1  0  0  0  0
  8 11  1  0  0  0  0
  9  6  1  0  0  0  0
 10 13  1  0  0  0  0
 11 14  1  0  0  0  0
 12  9  1  0  0  0  0
 14 12  1  0  0  0  0
 14 15  1  0  0  0  0
 15 16  1  0  0  0  0
 15 17  1  0  0  0  0
 18  2  1  0  0  0  0
 18 23  2  0  0  0  0
 19  1  1  0  0  0  0
 19 18  1  0  0  0  0
 20 19  2  0  0  0  0
 21  3  1  0  0  0  0
 21 20  1  0  0  0  0
 22 21  2  0  0  0  0
 22 23  1  0  0  0  0
M  END
>  <CHROM.1>
174.40216515,-175.13016521,-72.99830160,137.96908871,-173.89404059,100.06308353
-61.40423829,-112.55250443,131.98848190,168.22893073,-118.08450291,-5.36793157
-0.46674921,-0.64317842,-0.53871744,0.26716979,-1.03482699

>  <Name>
1uui_lig

>  <RI>
0

>  <Rbt.Current_Directory>
/home/itssahil/PROJECTS/Mol_Feturizer/New_Systems/rnas/1uui

>  <Rbt.Executable>
rbdock ($Id: //depot/dev/client3/rdock/2013.1/src/exe/rbdock.cxx#4 $)

>  <Rbt.Library>
libRbt.so (2013.1, Build901 2013/11/27)

>  <Rbt.Parameter_File>
/export/apps/rDock/src/rDock_2013.1_src/data/scripts/dock_solv.prm

>  <Rbt.Receptor>
prm/pocket_docking_7.prm

>  <SCORE>
-25.1673

>  <SCORE.INTER>
-21.2714

>  <SCORE.INTER.CONST>
1

>  <SCORE.INTER.POLAR>
-4.32978

>  <SCORE.INTER.ROT>
10

>  <SCORE.INTER.SOLV>
6.52588

>  <SCORE.INTER.VDW>
-12.1903

>  <SCORE.INTER.norm>
-0.924842

>  <SCORE.INTRA>
-3.8959

>  <SCORE.INTRA.DIHEDRAL>
-7.45954

>  <SCORE.INTRA.DIHEDRAL.0>
23.4151

>  <SCORE.INTRA.POLAR>
0

>  <SCORE.INTRA.POLAR.0>
0

>  <SCORE.INTRA.REPUL>
0

>  <SCORE.INTRA.REPUL.0>
0

>  <SCORE.INTRA.SOLV>
-0.0718572

>  <SCORE.INTRA.SOLV.lig_0>
-17.3568

>  <SCORE.INTRA.VDW>
-0.130205

>  <SCORE.INTRA.VDW.0>
1.0768

>  <SCORE.INTRA.norm>
-0.169387

>  <SCORE.RESTR>
0

>  <SCORE.RESTR.CAVITY>
0

>  <SCORE.RESTR.norm>
0

>  <SCORE.SYSTEM>
0

>  <SCORE.SYSTEM.CONST>
0

>  <SCORE.SYSTEM.DIHEDRAL>
0

>  <SCORE.SYSTEM.SOLV>
0

>  <SCORE.SYSTEM.norm>
0

>  <SCORE.heavy>
23

>  <SCORE.norm>
-1.09423

>  <RMSD>
8.161

$$$$
1uui_lig
 OpenBabel11021811413D
libRbt.so/2013.1/901 2013/11/27
 23 24  0  0  0  0  0  0  0  0999 V2000
   -5.4550   -1.5776   -0.5013 C   0  0  0  0  0  0  0  0  0  0  0  0
   -5.0450   -0.3252   -3.0926 O   0  0  0  0  0  0  0  0  0  0  0  0
   -1.5117   -4.5358   -1.5790 O   0  0  0  0  0  0  0  0  0  0  0  0
   -4.6149    0.9081   -2.5027 C   0  0  0  0  0  0  0  0  0  0  0  0
   -0.3245   -3.9780   -1.0102 C   0  0  0  0  0  0  0  0  0  0  0  0
   -5.7839   -2.6778    0.4635 N   0  0  0  0  0  0  0  0  0  0  0  0
   -5.8377    1.7860   -2.2322 C   0  0  0  0  0  0  0  0  0  0  0  0
   -7.1586   -2.5217    1.0116 C   0  0  0  0  0  0  0  0  0  0  0  0
   -4.8052   -2.7134    1.5822 C   0  0  0  0  0  0  0  0  0  0  0  0
   -5.3969    3.1333   -1.6512 C   0  0  0  0  0  0  0  0  0  0  0  0
   -7.3245   -1.2000    1.7807 C   0  0  0  0  0  0  0  0  0  0  0  0
   -4.7885   -1.3885    2.3636 C   0  0  0  0  0  0  0  0  0  0  0  0
   -6.5386    3.7686   -0.9559 N   0  0  0  0  0  0  0  0  0  0  0  0
   -6.0075   -0.5633    2.0964 N   0  0  0  0  0  0  0  0  0  0  0  0
   -5.9729    0.8120    2.3929 C   0  0  0  0  0  0  0  0  0  0  0  0
   -5.7399    1.2454    3.6644 N   0  0  0  0  0  0  0  0  0  0  0  0
   -6.3036    1.7366    1.4466 N   0  0  0  0  0  0  0  0  0  0  0  0
   -4.1621   -1.3845   -2.7123 C   0  0  0  0  0  0  0  0  0  0  0  0
   -4.3231   -2.0268   -1.4542 C   0  0  0  0  0  0  0  0  0  0  0  0
   -3.4398   -3.0767   -1.0785 C   0  0  0  0  0  0  0  0  0  0  0  0
   -2.4001   -3.4811   -1.9593 C   0  0  0  0  0  0  0  0  0  0  0  0
   -2.2427   -2.8387   -3.2154 C   0  0  0  0  0  0  0  0  0  0  0  0
   -3.1229   -1.7899   -3.5910 C   0  0  0  0  0  0  0  0  0  0  0  0
  2  4  1  0  0  0  0
  3  5  1  0  0  0  0
  4  7  1  0  0  0  0
  6  1  1  0  0  0  0
  7 10  1  0  0  0  0
  8  6  1  0  0  0  0
  8 11  1  0  0  0  0
  9  6  1  0  0  0  0
 10 13  1  0  0  0  0
 11 14  1  0  0  0  0
 12  9  1  0  0  0  0
 14 12  1  0  0  0  0
 14 15  1  0  0  0  0
 15 16  1  0  0  0  0
 15 17  1  0  0  0  0
 18  2  1  0  0  0  0
 18 23  2  0  0  0  0
 19  1  1  0  0  0  0
 19 18  1  0  0  0  0
 20 19  2  0  0  0  0
 21  3  1  0  0  0  0
 21 20  1  0  0  0  0
 22 21  2  0  0  0  0
 22 23  1  0  0  0  0
M  END
>  <CHROM.1>
-148.80895524,-177.80903517,-157.58050009,-159.94235104,-174.11399937,108.26398270
38.98119706,39.29868935,82.03676355,157.82974490,-95.84652587,-4.74909975
-0.90909199,-0.41464050,0.11304606,-0.95387953,2.27103624

>  <Name>
1uui_lig

>  <RI>
0

>  <Rbt.Current_Directory>
/home/itssahil/PROJECTS/Mol_Feturizer/New_Systems/rnas/1uui

>  <Rbt.Executable>
rbdock ($Id: //depot/dev/client3/rdock/2013.1/src/exe/rbdock.cxx#4 $)

>  <Rbt.Library>
libRbt.so (2013.1, Build901 2013/11/27)

>  <Rbt.Parameter_File>
/export/apps/rDock/src/rDock_2013.1_src/data/scripts/dock_solv.prm

>  <Rbt.Receptor>
prm/pocket_docking_8.prm

>  <SCORE>
-16.5562

>  <SCORE.INTER>
-9.38612

>  <SCORE.INTER.CONST>
1

>  <SCORE.INTER.POLAR>
-1.03923

>  <SCORE.INTER.ROT>
10

>  <SCORE.INTER.SOLV>
4.71466

>  <SCORE.INTER.VDW>
-14.6315

>  <SCORE.INTER.norm>
-0.408092

>  <SCORE.INTRA>
-7.17011

>  <SCORE.INTRA.DIHEDRAL>
-3.26579

>  <SCORE.INTRA.DIHEDRAL.0>
23.4151

>  <SCORE.INTRA.POLAR>
-0.964072

>  <SCORE.INTRA.POLAR.0>
0

>  <SCORE.INTRA.REPUL>
0

>  <SCORE.INTRA.REPUL.0>
0

>  <SCORE.INTRA.SOLV>
0.970252

>  <SCORE.INTRA.SOLV.lig_0>
-17.3568

>  <SCORE.INTRA.VDW>
-2.7445

>  <SCORE.INTRA.VDW.0>
1.0768

>  <SCORE.INTRA.norm>
-0.311744

>  <SCORE.RESTR>
0

>  <SCORE.RESTR.CAVITY>
0

>  <SCORE.RESTR.norm>
0

>  <SCORE.SYSTEM>
0

>  <SCORE.SYSTEM.CONST>
0

>  <SCORE.SYSTEM.DIHEDRAL>
0

>  <SCORE.SYSTEM.SOLV>
0

>  <SCORE.SYSTEM.norm>
0

>  <SCORE.heavy>
23

>  <SCORE.norm>
-0.719836

>  <RMSD>
8.173

$$$$
1uui_lig
 OpenBabel11021811413D
libRbt.so/2013.1/901 2013/11/27
 23 24  0  0  0  0  0  0  0  0999 V2000
   -3.6182   -0.9593    2.6917 C   0  0  0  0  0  0  0  0  0  0  0  0
   -4.4303   -3.4268    1.3865 O   0  0  0  0  0  0  0  0  0  0  0  0
   -8.1521    0.8912    1.4744 O   0  0  0  0  0  0  0  0  0  0  0  0
   -3.9357   -3.6252    0.0561 C   0  0  0  0  0  0  0  0  0  0  0  0
   -9.4630    0.3835    1.7346 C   0  0  0  0  0  0  0  0  0  0  0  0
   -2.5867   -0.6454    1.6491 N   0  0  0  0  0  0  0  0  0  0  0  0
   -3.0558   -4.8759    0.0314 C   0  0  0  0  0  0  0  0  0  0  0  0
   -1.2090   -0.8344    2.1793 C   0  0  0  0  0  0  0  0  0  0  0  0
   -2.7401    0.7476    1.1526 C   0  0  0  0  0  0  0  0  0  0  0  0
   -2.9337   -5.4020   -1.4023 C   0  0  0  0  0  0  0  0  0  0  0  0
   -0.9206    0.0906    3.3739 C   0  0  0  0  0  0  0  0  0  0  0  0
   -2.5920    1.7742    2.2885 C   0  0  0  0  0  0  0  0  0  0  0  0
   -2.0687   -6.6029   -1.4157 N   0  0  0  0  0  0  0  0  0  0  0  0
   -1.9339    1.1851    3.4960 N   0  0  0  0  0  0  0  0  0  0  0  0
   -2.0816    1.8374    4.7342 C   0  0  0  0  0  0  0  0  0  0  0  0
   -2.5005    1.1536    5.8369 N   0  0  0  0  0  0  0  0  0  0  0  0
   -1.9399    3.1904    4.8295 N   0  0  0  0  0  0  0  0  0  0  0  0
   -5.3610   -2.3407    1.4065 C   0  0  0  0  0  0  0  0  0  0  0  0
   -5.0090   -1.1144    2.0338 C   0  0  0  0  0  0  0  0  0  0  0  0
   -5.9396   -0.0386    2.0550 C   0  0  0  0  0  0  0  0  0  0  0  0
   -7.2169   -0.1910    1.4505 C   0  0  0  0  0  0  0  0  0  0  0  0
   -7.5650   -1.4163    0.8238 C   0  0  0  0  0  0  0  0  0  0  0  0
   -6.6375   -2.4910    0.8029 C   0  0  0  0  0  0  0  0  0  0  0  0
  2  4  1  0  0  0  0
  3  5  1  0  0  0  0
  4  7  1  0  0  0  0
  6  1  1  0  0  0  0
  7 10  1  0  0  0  0
  8  6  1  0  0  0  0
  8 11  1  0  0  0  0
  9  6  1  0  0  0  0
 10 13  1  0  0  0  0
 11 14  1  0  0  0  0
 12  9  1  0  0  0  0
 14 12  1  0  0  0  0
 14 15  1  0  0  0  0
 15 16  1  0  0  0  0
 15 17  1  0  0  0  0
 18  2  1  0  0  0  0
 18 23  2  0  0  0  0
 19  1  1  0  0  0  0
 19 18  1  0  0  0  0
 20 19  2  0  0  0  0
 21  3  1  0  0  0  0
 21 20  1  0  0  0  0
 22 21  2  0  0  0  0
 22 23  1  0  0  0  0
M  END
>  <CHROM.1>
-174.28577735,159.51847024,-165.36800829,179.38768202,-66.68247689,-63.22746522
32.93729629,-43.79620899,-109.54895042,81.05272885,-139.17224886,-4.02762060
-1.00330183,1.86264128,-1.41125657,0.17911233,-2.56197305

>  <Name>
1uui_lig

>  <RI>
0

>  <Rbt.Current_Directory>
/home/itssahil/PROJECTS/Mol_Feturizer/New_Systems/rnas/1uui

>  <Rbt.Executable>
rbdock ($Id: //depot/dev/client3/rdock/2013.1/src/exe/rbdock.cxx#4 $)

>  <Rbt.Library>
libRbt.so (2013.1, Build901 2013/11/27)

>  <Rbt.Parameter_File>
/export/apps/rDock/src/rDock_2013.1_src/data/scripts/dock_solv.prm

>  <Rbt.Receptor>
prm/pocket_docking_8.prm

>  <SCORE>
-29.5646

>  <SCORE.INTER>
-23.6822

>  <SCORE.INTER.CONST>
1

>  <SCORE.INTER.POLAR>
-3.05929

>  <SCORE.INTER.ROT>
10

>  <SCORE.INTER.SOLV>
8.33514

>  <SCORE.INTER.VDW>
-18.6355

>  <SCORE.INTER.norm>
-1.02966

>  <SCORE.INTRA>
-5.88245

>  <SCORE.INTRA.DIHEDRAL>
-10.6162

>  <SCORE.INTRA.DIHEDRAL.0>
23.4151

>  <SCORE.INTRA.POLAR>
0

>  <SCORE.INTRA.POLAR.0>
0

>  <SCORE.INTRA.REPUL>
0

>  <SCORE.INTRA.REPUL.0>
0

>  <SCORE.INTRA.SOLV>
0.145342

>  <SCORE.INTRA.SOLV.lig_0>
-17.3568

>  <SCORE.INTRA.VDW>
-0.647038

>  <SCORE.INTRA.VDW.0>
1.0768

>  <SCORE.INTRA.norm>
-0.255759

>  <SCORE.RESTR>
0

>  <SCORE.RESTR.CAVITY>
0

>  <SCORE.RESTR.norm>
0

>  <SCORE.SYSTEM>
0

>  <SCORE.SYSTEM.CONST>
0

>  <SCORE.SYSTEM.DIHEDRAL>
0

>  <SCORE.SYSTEM.SOLV>
0

>  <SCORE.SYSTEM.norm>
0

>  <SCORE.heavy>
23

>  <SCORE.norm>
-1.28542

>  <RMSD>
8.245

$$$$
1uui_lig
 OpenBabel11021811413D
libRbt.so/2013.1/901 2013/11/27
 23 24  0  0  0  0  0  0  0  0999 V2000
   -5.0528    0.1140    3.3870 C   0  0  0  0  0  0  0  0  0  0  0  0
   -3.2163   -1.5884    1.9104 O   0  0  0  0  0  0  0  0  0  0  0  0
   -0.9935    2.4507    5.2642 O   0  0  0  0  0  0  0  0  0  0  0  0
   -3.3739   -2.8093    2.6443 C   0  0  0  0  0  0  0  0  0  0  0  0
   -1.3882    3.7381    4.7836 C   0  0  0  0  0  0  0  0  0  0  0  0
   -5.6688    1.3641    2.8326 N   0  0  0  0  0  0  0  0  0  0  0  0
   -4.0447   -3.8496    1.7459 C   0  0  0  0  0  0  0  0  0  0  0  0
   -7.1534    1.2659    2.8013 C   0  0  0  0  0  0  0  0  0  0  0  0
   -5.1615    1.6440    1.4634 C   0  0  0  0  0  0  0  0  0  0  0  0
   -3.2026   -4.0743    0.4860 C   0  0  0  0  0  0  0  0  0  0  0  0
   -7.6345    0.1078    1.9107 C   0  0  0  0  0  0  0  0  0  0  0  0
   -5.4772    0.4915    0.4948 C   0  0  0  0  0  0  0  0  0  0  0  0
   -3.8904   -3.4775   -0.6807 N   0  0  0  0  0  0  0  0  0  0  0  0
   -6.5455   -0.4116    1.0253 N   0  0  0  0  0  0  0  0  0  0  0  0
   -6.6706   -1.7043    0.4834 C   0  0  0  0  0  0  0  0  0  0  0  0
   -6.7743   -1.8886   -0.8635 N   0  0  0  0  0  0  0  0  0  0  0  0
   -6.8260   -2.7879    1.2966 N   0  0  0  0  0  0  0  0  0  0  0  0
   -2.6609   -0.5768    2.7555 C   0  0  0  0  0  0  0  0  0  0  0  0
   -3.5194    0.2804    3.4967 C   0  0  0  0  0  0  0  0  0  0  0  0
   -2.9624    1.2880    4.3324 C   0  0  0  0  0  0  0  0  0  0  0  0
   -1.5517    1.4358    4.4248 C   0  0  0  0  0  0  0  0  0  0  0  0
   -0.6971    0.5775    3.6845 C   0  0  0  0  0  0  0  0  0  0  0  0
   -1.2518   -0.4277    2.8493 C   0  0  0  0  0  0  0  0  0  0  0  0
  2  4  1  0  0  0  0
  3  5  1  0  0  0  0
  4  7  1  0  0  0  0
  6  1  1  0  0  0  0
  7 10  1  0  0  0  0
  8  6  1  0  0  0  0
  8 11  1  0  0  0  0
  9  6  1  0  0  0  0
 10 13  1  0  0  0  0
 11 14  1  0  0  0  0
 12  9  1  0  0  0  0
 14 12  1  0  0  0  0
 14 15  1  0  0  0  0
 15 16  1  0  0  0  0
 15 17  1  0  0  0  0
 18  2  1  0  0  0  0
 18 23  2  0  0  0  0
 19  1  1  0  0  0  0
 19 18  1  0  0  0  0
 20 19  2  0  0  0  0
 21  3  1  0  0  0  0
 21 20  1  0  0  0  0
 22 21  2  0  0  0  0
 22 23  1  0  0  0  0
M  END
>  <CHROM.1>
176.67661740,58.17852220,-176.19365601,-108.32627605,-176.11733237,115.96228544
-122.55121708,179.67787951,-90.63261184,-118.34851933,-63.14741252,-4.20879586
-0.42610075,2.22400807,0.91331955,-0.33736510,0.50190635

>  <Name>
1uui_lig

>  <RI>
0

>  <Rbt.Current_Directory>
/home/itssahil/PROJECTS/Mol_Feturizer/New_Systems/rnas/1uui

>  <Rbt.Executable>
rbdock ($Id: //depot/dev/client3/rdock/2013.1/src/exe/rbdock.cxx#4 $)

>  <Rbt.Library>
libRbt.so (2013.1, Build901 2013/11/27)

>  <Rbt.Parameter_File>
/export/apps/rDock/src/rDock_2013.1_src/data/scripts/dock_solv.prm

>  <Rbt.Receptor>
prm/pocket_docking_8.prm

>  <SCORE>
-37.6117

>  <SCORE.INTER>
-31.5359

>  <SCORE.INTER.CONST>
1

>  <SCORE.INTER.POLAR>
-3.97999

>  <SCORE.INTER.ROT>
10

>  <SCORE.INTER.SOLV>
6.89792

>  <SCORE.INTER.VDW>
-20.3233

>  <SCORE.INTER.norm>
-1.37113

>  <SCORE.INTRA>
-6.07581

>  <SCORE.INTRA.DIHEDRAL>
-5.33731

>  <SCORE.INTRA.DIHEDRAL.0>
23.4151

>  <SCORE.INTRA.POLAR>
0

>  <SCORE.INTRA.POLAR.0>
0

>  <SCORE.INTRA.REPUL>
0

>  <SCORE.INTRA.REPUL.0>
0

>  <SCORE.INTRA.SOLV>
2.48939

>  <SCORE.INTRA.SOLV.lig_0>
-17.3568

>  <SCORE.INTRA.VDW>
-4.65185

>  <SCORE.INTRA.VDW.0>
1.0768

>  <SCORE.INTRA.norm>
-0.264165

>  <SCORE.RESTR>
0

>  <SCORE.RESTR.CAVITY>
0

>  <SCORE.RESTR.norm>
0

>  <SCORE.SYSTEM>
0

>  <SCORE.SYSTEM.CONST>
0

>  <SCORE.SYSTEM.DIHEDRAL>
0

>  <SCORE.SYSTEM.SOLV>
0

>  <SCORE.SYSTEM.norm>
0

>  <SCORE.heavy>
23

>  <SCORE.norm>
-1.63529

>  <RMSD>
8.260

$$$$
1uui_lig
 OpenBabel11021811413D
libRbt.so/2013.1/901 2013/11/27
 23 24  0  0  0  0  0  0  0  0999 V2000
  -15.1876    0.5304    5.0174 C   0  0  0  0  0  0  0  0  0  0  0  0
  -16.9566   -1.6516    5.7664 O   0  0  0  0  0  0  0  0  0  0  0  0
  -18.1154    3.5412    7.8147 O   0  0  0  0  0  0  0  0  0  0  0  0
  -17.1331   -1.6739    4.3443 C   0  0  0  0  0  0  0  0  0  0  0  0
  -16.9723    4.0438    8.5111 C   0  0  0  0  0  0  0  0  0  0  0  0
  -13.9528    0.3197    5.8421 N   0  0  0  0  0  0  0  0  0  0  0  0
  -16.6095   -3.0023    3.7964 C   0  0  0  0  0  0  0  0  0  0  0  0
  -13.0215    1.4744    5.7237 C   0  0  0  0  0  0  0  0  0  0  0  0
  -13.2506   -0.9271    5.4383 C   0  0  0  0  0  0  0  0  0  0  0  0
  -16.8012   -3.0542    2.2773 C   0  0  0  0  0  0  0  0  0  0  0  0
  -12.5501    1.6868    4.2751 C   0  0  0  0  0  0  0  0  0  0  0  0
  -12.8303   -0.8877    3.9592 C   0  0  0  0  0  0  0  0  0  0  0  0
  -15.9999   -4.1648    1.7161 N   0  0  0  0  0  0  0  0  0  0  0  0
  -12.8443    0.5031    3.4080 N   0  0  0  0  0  0  0  0  0  0  0  0
  -12.8851    0.6783    2.0122 C   0  0  0  0  0  0  0  0  0  0  0  0
  -13.0902    1.9124    1.4702 N   0  0  0  0  0  0  0  0  0  0  0  0
  -12.8553   -0.3973    1.1745 N   0  0  0  0  0  0  0  0  0  0  0  0
  -17.2476   -0.3471    6.2760 C   0  0  0  0  0  0  0  0  0  0  0  0
  -16.4105    0.7511    5.9377 C   0  0  0  0  0  0  0  0  0  0  0  0
  -16.7012    2.0458    6.4506 C   0  0  0  0  0  0  0  0  0  0  0  0
  -17.8256    2.2391    7.2984 C   0  0  0  0  0  0  0  0  0  0  0  0
  -18.6603    1.1407    7.6334 C   0  0  0  0  0  0  0  0  0  0  0  0
  -18.3705   -0.1521    7.1230 C   0  0  0  0  0  0  0  0  0  0  0  0
  2  4  1  0  0  0  0
  3  5  1  0  0  0  0
  4  7  1  0  0  0  0
  6  1  1  0  0  0  0
  7 10  1  0  0  0  0
  8  6  1  0  0  0  0
  8 11  1  0  0  0  0
  9  6  1  0  0  0  0
 10 13  1  0  0  0  0
 11 14  1  0  0  0  0
 12  9  1  0  0  0  0
 14 12  1  0  0  0  0
 14 15  1  0  0  0  0
 15 16  1  0  0  0  0
 15 17  1  0  0  0  0
 18  2  1  0  0  0  0
 18 23  2  0  0  0  0
 19  1  1  0  0  0  0
 19 18  1  0  0  0  0
 20 19  2  0  0  0  0
 21  3  1  0  0  0  0
 21 20  1  0  0  0  0
 22 21  2  0  0  0  0
 22 23  1  0  0  0  0
M  END
>  <CHROM.1>
171.19964022,179.43517999,-110.52530717,165.82118900,66.32301665,-21.11712988
-89.63460600,-79.75684412,-66.62174476,-95.24901398,-55.65870054,-15.44283502
0.16419156,4.84593225,-2.22290460,-0.55461775,-2.51413281

>  <Name>
1uui_lig

>  <RI>
0

>  <Rbt.Current_Directory>
/home/itssahil/PROJECTS/Mol_Feturizer/New_Systems/rnas/1uui

>  <Rbt.Executable>
rbdock ($Id: //depot/dev/client3/rdock/2013.1/src/exe/rbdock.cxx#4 $)

>  <Rbt.Library>
libRbt.so (2013.1, Build901 2013/11/27)

>  <Rbt.Parameter_File>
/export/apps/rDock/src/rDock_2013.1_src/data/scripts/dock_solv.prm

>  <Rbt.Receptor>
prm/pocket_docking_7.prm

>  <SCORE>
-27.2563

>  <SCORE.INTER>
-22.7271

>  <SCORE.INTER.CONST>
1

>  <SCORE.INTER.POLAR>
-2.82231

>  <SCORE.INTER.ROT>
10

>  <SCORE.INTER.SOLV>
4.67092

>  <SCORE.INTER.VDW>
-17.5673

>  <SCORE.INTER.norm>
-0.988133

>  <SCORE.INTRA>
-4.52929

>  <SCORE.INTRA.DIHEDRAL>
-7.08106

>  <SCORE.INTRA.DIHEDRAL.0>
23.4151

>  <SCORE.INTRA.POLAR>
0

>  <SCORE.INTRA.POLAR.0>
0

>  <SCORE.INTRA.REPUL>
0

>  <SCORE.INTRA.REPUL.0>
0

>  <SCORE.INTRA.SOLV>
0.0155746

>  <SCORE.INTRA.SOLV.lig_0>
-17.3568

>  <SCORE.INTRA.VDW>
-0.99655

>  <SCORE.INTRA.VDW.0>
1.0768

>  <SCORE.INTRA.norm>
-0.196926

>  <SCORE.RESTR>
0

>  <SCORE.RESTR.CAVITY>
0

>  <SCORE.RESTR.norm>
0

>  <SCORE.SYSTEM>
0

>  <SCORE.SYSTEM.CONST>
0

>  <SCORE.SYSTEM.DIHEDRAL>
0

>  <SCORE.SYSTEM.SOLV>
0

>  <SCORE.SYSTEM.norm>
0

>  <SCORE.heavy>
23

>  <SCORE.norm>
-1.18506

>  <RMSD>
8.280

$$$$
1uui_lig
 OpenBabel11021811413D
libRbt.so/2013.1/901 2013/11/27
 23 24  0  0  0  0  0  0  0  0999 V2000
  -13.6259    2.5688    6.4506 C   0  0  0  0  0  0  0  0  0  0  0  0
  -12.7853    5.1185    7.5660 O   0  0  0  0  0  0  0  0  0  0  0  0
  -18.1711    3.4698    8.4484 O   0  0  0  0  0  0  0  0  0  0  0  0
  -12.7583    6.4881    7.1447 C   0  0  0  0  0  0  0  0  0  0  0  0
  -18.9014    3.5563    7.2224 C   0  0  0  0  0  0  0  0  0  0  0  0
  -14.3056    1.2874    6.0694 N   0  0  0  0  0  0  0  0  0  0  0  0
  -11.3057    6.9172    6.9324 C   0  0  0  0  0  0  0  0  0  0  0  0
  -13.3167    0.1977    5.8469 C   0  0  0  0  0  0  0  0  0  0  0  0
  -15.1294    1.4669    4.8449 C   0  0  0  0  0  0  0  0  0  0  0  0
  -10.5468    6.8729    8.2625 C   0  0  0  0  0  0  0  0  0  0  0  0
  -12.3397    0.5317    4.7069 C   0  0  0  0  0  0  0  0  0  0  0  0
  -14.2763    1.9235    3.6491 C   0  0  0  0  0  0  0  0  0  0  0  0
  -10.0689    5.4947    8.5128 N   0  0  0  0  0  0  0  0  0  0  0  0
  -12.8174    1.6797    3.8742 N   0  0  0  0  0  0  0  0  0  0  0  0
  -11.8842    2.3841    3.0910 C   0  0  0  0  0  0  0  0  0  0  0  0
  -11.2036    1.7600    2.0879 N   0  0  0  0  0  0  0  0  0  0  0  0
  -11.5412    3.6667    3.4025 N   0  0  0  0  0  0  0  0  0  0  0  0
  -14.1350    4.7010    7.7894 C   0  0  0  0  0  0  0  0  0  0  0  0
  -14.5922    3.4620    7.2628 C   0  0  0  0  0  0  0  0  0  0  0  0
  -15.9367    3.0531    7.4837 C   0  0  0  0  0  0  0  0  0  0  0  0
  -16.8190    3.8818    8.2288 C   0  0  0  0  0  0  0  0  0  0  0  0
  -16.3592    5.1178    8.7544 C   0  0  0  0  0  0  0  0  0  0  0  0
  -15.0178    5.5275    8.5337 C   0  0  0  0  0  0  0  0  0  0  0  0
  2  4  1  0  0  0  0
  3  5  1  0  0  0  0
  4  7  1  0  0  0  0
  6  1  1  0  0  0  0
  7 10  1  0  0  0  0
  8  6  1  0  0  0  0
  8 11  1  0  0  0  0
  9  6  1  0  0  0  0
 10 13  1  0  0  0  0
 11 14  1  0  0  0  0
 12  9  1  0  0  0  0
 14 12  1  0  0  0  0
 14 15  1  0  0  0  0
 15 16  1  0  0  0  0
 15 17  1  0  0  0  0
 18  2  1  0  0  0  0
 18 23  2  0  0  0  0
 19  1  1  0  0  0  0
 19 18  1  0  0  0  0
 20 19  2  0  0  0  0
 21  3  1  0  0  0  0
 21 20  1  0  0  0  0
 22 21  2  0  0  0  0
 22 23  1  0  0  0  0
M  END
>  <CHROM.1>
179.17089049,-64.29583996,-154.82744300,84.03426063,73.83683360,62.51407203
-56.30033746,-131.31501540,133.36542060,176.76557519,-71.14870590,-13.75292055
3.52058075,6.32035313,0.85882667,-0.35120532,-2.37825417

>  <Name>
1uui_lig

>  <RI>
0

>  <Rbt.Current_Directory>
/home/itssahil/PROJECTS/Mol_Feturizer/New_Systems/rnas/1uui

>  <Rbt.Executable>
rbdock ($Id: //depot/dev/client3/rdock/2013.1/src/exe/rbdock.cxx#4 $)

>  <Rbt.Library>
libRbt.so (2013.1, Build901 2013/11/27)

>  <Rbt.Parameter_File>
/export/apps/rDock/src/rDock_2013.1_src/data/scripts/dock_solv.prm

>  <Rbt.Receptor>
prm/pocket_docking_7.prm

>  <SCORE>
-24.7447

>  <SCORE.INTER>
-18.0964

>  <SCORE.INTER.CONST>
1

>  <SCORE.INTER.POLAR>
-2.06829

>  <SCORE.INTER.ROT>
10

>  <SCORE.INTER.SOLV>
3.59612

>  <SCORE.INTER.VDW>
-16.6353

>  <SCORE.INTER.norm>
-0.786799

>  <SCORE.INTRA>
-6.72088

>  <SCORE.INTRA.DIHEDRAL>
-8.522

>  <SCORE.INTRA.DIHEDRAL.0>
23.4151

>  <SCORE.INTRA.POLAR>
-0.625378

>  <SCORE.INTRA.POLAR.0>
0

>  <SCORE.INTRA.REPUL>
0

>  <SCORE.INTRA.REPUL.0>
0

>  <SCORE.INTRA.SOLV>
0.387283

>  <SCORE.INTRA.SOLV.lig_0>
-17.3568

>  <SCORE.INTRA.VDW>
-0.527236

>  <SCORE.INTRA.VDW.0>
1.0768

>  <SCORE.INTRA.norm>
-0.292212

>  <SCORE.RESTR>
0.0725566

>  <SCORE.RESTR.CAVITY>
0.0725566

>  <SCORE.RESTR.norm>
0.00315463

>  <SCORE.SYSTEM>
0

>  <SCORE.SYSTEM.CONST>
0

>  <SCORE.SYSTEM.DIHEDRAL>
0

>  <SCORE.SYSTEM.SOLV>
0

>  <SCORE.SYSTEM.norm>
0

>  <SCORE.heavy>
23

>  <SCORE.norm>
-1.07586

>  <RMSD>
8.349

$$$$
1uui_lig
 OpenBabel11021811413D
libRbt.so/2013.1/901 2013/11/27
 23 24  0  0  0  0  0  0  0  0999 V2000
   -5.9626   -1.7783    0.5148 C   0  0  0  0  0  0  0  0  0  0  0  0
   -7.7225    0.4634   -0.0586 O   0  0  0  0  0  0  0  0  0  0  0  0
   -4.4841    0.7481    4.6249 O   0  0  0  0  0  0  0  0  0  0  0  0
   -7.2719    1.4170   -1.0290 C   0  0  0  0  0  0  0  0  0  0  0  0
   -3.2005    1.2806    4.2890 C   0  0  0  0  0  0  0  0  0  0  0  0
   -5.2484   -1.4361   -0.7589 N   0  0  0  0  0  0  0  0  0  0  0  0
   -8.2190    1.3939   -2.2297 C   0  0  0  0  0  0  0  0  0  0  0  0
   -4.8061   -2.6630   -1.4757 C   0  0  0  0  0  0  0  0  0  0  0  0
   -4.0721   -0.5670   -0.4914 C   0  0  0  0  0  0  0  0  0  0  0  0
   -9.4217    2.3054   -1.9657 C   0  0  0  0  0  0  0  0  0  0  0  0
   -3.8264   -3.4988   -0.6346 C   0  0  0  0  0  0  0  0  0  0  0  0
   -3.0635   -1.2507    0.4474 C   0  0  0  0  0  0  0  0  0  0  0  0
  -10.3439    2.2537   -3.1221 N   0  0  0  0  0  0  0  0  0  0  0  0
   -3.2832   -2.7284    0.5278 N   0  0  0  0  0  0  0  0  0  0  0  0
   -2.7385   -3.4361    1.6154 C   0  0  0  0  0  0  0  0  0  0  0  0
   -3.5458   -3.9566    2.5831 N   0  0  0  0  0  0  0  0  0  0  0  0
   -1.3886   -3.5017    1.7974 N   0  0  0  0  0  0  0  0  0  0  0  0
   -6.9062    0.5343    1.1139 C   0  0  0  0  0  0  0  0  0  0  0  0
   -6.0303   -0.5382    1.4360 C   0  0  0  0  0  0  0  0  0  0  0  0
   -5.2237   -0.4652    2.6056 C   0  0  0  0  0  0  0  0  0  0  0  0
   -5.2945    0.6772    3.4484 C   0  0  0  0  0  0  0  0  0  0  0  0
   -6.1692    1.7471    3.1234 C   0  0  0  0  0  0  0  0  0  0  0  0
   -6.9755    1.6749    1.9570 C   0  0  0  0  0  0  0  0  0  0  0  0
  2  4  1  0  0  0  0
  3  5  1  0  0  0  0
  4  7  1  0  0  0  0
  6  1  1  0  0  0  0
  7 10  1  0  0  0  0
  8  6  1  0  0  0  0
  8 11  1  0  0  0  0
  9  6  1  0  0  0  0
 10 13  1  0  0  0  0
 11 14  1  0  0  0  0
 12  9  1  0  0  0  0
 14 12  1  0  0  0  0
 14 15  1  0  0  0  0
 15 16  1  0  0  0  0
 15 17  1  0  0  0  0
 18  2  1  0  0  0  0
 18 23  2  0  0  0  0
 19  1  1  0  0  0  0
 19 18  1  0  0  0  0
 20 19  2  0  0  0  0
 21  3  1  0  0  0  0
 21 20  1  0  0  0  0
 22 21  2  0  0  0  0
 22 23  1  0  0  0  0
M  END
>  <CHROM.1>
-175.93830547,84.87660262,162.90317314,-178.86689495,-63.62620318,-81.86555543
-132.88364461,65.44784790,-110.90590229,72.72511060,86.39111048,-5.44575149
-0.50835989,0.75845228,-0.08639715,0.75446128,-2.14949595

>  <Name>
1uui_lig

>  <RI>
0

>  <Rbt.Current_Directory>
/home/itssahil/PROJECTS/Mol_Feturizer/New_Systems/rnas/1uui

>  <Rbt.Executable>
rbdock ($Id: //depot/dev/client3/rdock/2013.1/src/exe/rbdock.cxx#4 $)

>  <Rbt.Library>
libRbt.so (2013.1, Build901 2013/11/27)

>  <Rbt.Parameter_File>
/export/apps/rDock/src/rDock_2013.1_src/data/scripts/dock_solv.prm

>  <Rbt.Receptor>
prm/pocket_docking_5.prm

>  <SCORE>
-24.7655

>  <SCORE.INTER>
-18.7677

>  <SCORE.INTER.CONST>
1

>  <SCORE.INTER.POLAR>
-2.29543

>  <SCORE.INTER.ROT>
10

>  <SCORE.INTER.SOLV>
7.34916

>  <SCORE.INTER.VDW>
-17.5767

>  <SCORE.INTER.norm>
-0.815986

>  <SCORE.INTRA>
-6.03219

>  <SCORE.INTRA.DIHEDRAL>
-7.30376

>  <SCORE.INTRA.DIHEDRAL.0>
23.4151

>  <SCORE.INTRA.POLAR>
0

>  <SCORE.INTRA.POLAR.0>
0

>  <SCORE.INTRA.REPUL>
0

>  <SCORE.INTRA.REPUL.0>
0

>  <SCORE.INTRA.SOLV>
0.529189

>  <SCORE.INTRA.SOLV.lig_0>
-17.3568

>  <SCORE.INTRA.VDW>
-2.64491

>  <SCORE.INTRA.VDW.0>
1.0768

>  <SCORE.INTRA.norm>
-0.262269

>  <SCORE.RESTR>
0.0343538

>  <SCORE.RESTR.CAVITY>
0.0343538

>  <SCORE.RESTR.norm>
0.00149364

>  <SCORE.SYSTEM>
0

>  <SCORE.SYSTEM.CONST>
0

>  <SCORE.SYSTEM.DIHEDRAL>
0

>  <SCORE.SYSTEM.SOLV>
0

>  <SCORE.SYSTEM.norm>
0

>  <SCORE.heavy>
23

>  <SCORE.norm>
-1.07676

>  <RMSD>
8.408

$$$$
1uui_lig
 OpenBabel11021811413D
libRbt.so/2013.1/901 2013/11/27
 23 24  0  0  0  0  0  0  0  0999 V2000
   -4.4937   -1.8572    3.3735 C   0  0  0  0  0  0  0  0  0  0  0  0
   -3.2320    0.5975    4.2868 O   0  0  0  0  0  0  0  0  0  0  0  0
   -8.5208    0.9417    2.1859 O   0  0  0  0  0  0  0  0  0  0  0  0
   -2.5452    1.8388    4.0835 C   0  0  0  0  0  0  0  0  0  0  0  0
   -8.4774    0.8004    0.7639 C   0  0  0  0  0  0  0  0  0  0  0  0
   -4.8025   -2.6685    2.1504 N   0  0  0  0  0  0  0  0  0  0  0  0
   -1.1289    1.7249    4.6492 C   0  0  0  0  0  0  0  0  0  0  0  0
   -4.0028   -3.9232    2.1193 C   0  0  0  0  0  0  0  0  0  0  0  0
   -4.5436   -1.8848    0.9138 C   0  0  0  0  0  0  0  0  0  0  0  0
   -1.1503    1.9512    6.1643 C   0  0  0  0  0  0  0  0  0  0  0  0
   -2.4911   -3.6410    2.0881 C   0  0  0  0  0  0  0  0  0  0  0  0
   -3.0754   -1.4347    0.8245 C   0  0  0  0  0  0  0  0  0  0  0  0
   -2.1689    1.0719    6.7806 N   0  0  0  0  0  0  0  0  0  0  0  0
   -2.1913   -2.2156    1.7448 N   0  0  0  0  0  0  0  0  0  0  0  0
   -0.9338   -1.6853    2.0881 C   0  0  0  0  0  0  0  0  0  0  0  0
   -0.7938   -0.8680    3.1705 N   0  0  0  0  0  0  0  0  0  0  0  0
    0.1441   -1.8661    1.2727 N   0  0  0  0  0  0  0  0  0  0  0  0
   -4.5604    0.6808    3.7629 C   0  0  0  0  0  0  0  0  0  0  0  0
   -5.2181   -0.4929    3.3033 C   0  0  0  0  0  0  0  0  0  0  0  0
   -6.5376   -0.4044    2.7789 C   0  0  0  0  0  0  0  0  0  0  0  0
   -7.1949    0.8543    2.7153 C   0  0  0  0  0  0  0  0  0  0  0  0
   -6.5359    2.0243    3.1761 C   0  0  0  0  0  0  0  0  0  0  0  0
   -5.2187    1.9374    3.6987 C   0  0  0  0  0  0  0  0  0  0  0  0
  2  4  1  0  0  0  0
  3  5  1  0  0  0  0
  4  7  1  0  0  0  0
  6  1  1  0  0  0  0
  7 10  1  0  0  0  0
  8  6  1  0  0  0  0
  8 11  1  0  0  0  0
  9  6  1  0  0  0  0
 10 13  1  0  0  0  0
 11 14  1  0  0  0  0
 12  9  1  0  0  0  0
 14 12  1  0  0  0  0
 14 15  1  0  0  0  0
 15 16  1  0  0  0  0
 15 17  1  0  0  0  0
 18  2  1  0  0  0  0
 18 23  2  0  0  0  0
 19  1  1  0  0  0  0
 19 18  1  0  0  0  0
 20 19  2  0  0  0  0
 21  3  1  0  0  0  0
 21 20  1  0  0  0  0
 22 21  2  0  0  0  0
 22 23  1  0  0  0  0
M  END
>  <CHROM.1>
-179.92361154,-81.53446577,173.78755545,51.36718192,141.32064792,-102.49398652
-177.09851982,1.05945531,152.17950343,-141.13967045,-74.09985462,-3.83864889
-0.38370156,2.97768996,3.09219507,-0.27098411,0.67654668

>  <Name>
1uui_lig

>  <RI>
0

>  <Rbt.Current_Directory>
/home/itssahil/PROJECTS/Mol_Feturizer/New_Systems/rnas/1uui

>  <Rbt.Executable>
rbdock ($Id: //depot/dev/client3/rdock/2013.1/src/exe/rbdock.cxx#4 $)

>  <Rbt.Library>
libRbt.so (2013.1, Build901 2013/11/27)

>  <Rbt.Parameter_File>
/export/apps/rDock/src/rDock_2013.1_src/data/scripts/dock_solv.prm

>  <Rbt.Receptor>
prm/pocket_docking_8.prm

>  <SCORE>
-33.5425

>  <SCORE.INTER>
-25.8147

>  <SCORE.INTER.CONST>
1

>  <SCORE.INTER.POLAR>
-2.46469

>  <SCORE.INTER.ROT>
10

>  <SCORE.INTER.SOLV>
8.05545

>  <SCORE.INTER.VDW>
-21.946

>  <SCORE.INTER.norm>
-1.12238

>  <SCORE.INTRA>
-7.72781

>  <SCORE.INTRA.DIHEDRAL>
-9.14892

>  <SCORE.INTRA.DIHEDRAL.0>
23.4151

>  <SCORE.INTRA.POLAR>
-1.34745

>  <SCORE.INTRA.POLAR.0>
0

>  <SCORE.INTRA.REPUL>
0.00515071

>  <SCORE.INTRA.REPUL.0>
0

>  <SCORE.INTRA.SOLV>
1.73262

>  <SCORE.INTRA.SOLV.lig_0>
-17.3568

>  <SCORE.INTRA.VDW>
0.535921

>  <SCORE.INTRA.VDW.0>
1.0768

>  <SCORE.INTRA.norm>
-0.335992

>  <SCORE.RESTR>
0

>  <SCORE.RESTR.CAVITY>
0

>  <SCORE.RESTR.norm>
0

>  <SCORE.SYSTEM>
0

>  <SCORE.SYSTEM.CONST>
0

>  <SCORE.SYSTEM.DIHEDRAL>
0

>  <SCORE.SYSTEM.SOLV>
0

>  <SCORE.SYSTEM.norm>
0

>  <SCORE.heavy>
23

>  <SCORE.norm>
-1.45837

>  <RMSD>
8.475

$$$$
1uui_lig
 OpenBabel11021811413D
libRbt.so/2013.1/901 2013/11/27
 23 24  0  0  0  0  0  0  0  0999 V2000
   -5.2593    1.3344   -0.7301 C   0  0  0  0  0  0  0  0  0  0  0  0
   -6.5789    0.7073    1.7832 O   0  0  0  0  0  0  0  0  0  0  0  0
   -3.3091    5.3733    1.5820 O   0  0  0  0  0  0  0  0  0  0  0  0
   -5.7578   -0.4576    1.9338 C   0  0  0  0  0  0  0  0  0  0  0  0
   -4.1371    6.5388    1.5691 C   0  0  0  0  0  0  0  0  0  0  0  0
   -3.9168    0.8728   -1.2141 N   0  0  0  0  0  0  0  0  0  0  0  0
   -6.6550   -1.6759    2.1576 C   0  0  0  0  0  0  0  0  0  0  0  0
   -3.4409    1.7006   -2.3556 C   0  0  0  0  0  0  0  0  0  0  0  0
   -3.9620   -0.5560   -1.6226 C   0  0  0  0  0  0  0  0  0  0  0  0
   -7.5700   -1.8820    0.9462 C   0  0  0  0  0  0  0  0  0  0  0  0
   -4.3931    1.6197   -3.5609 C   0  0  0  0  0  0  0  0  0  0  0  0
   -4.9785   -0.7909   -2.7530 C   0  0  0  0  0  0  0  0  0  0  0  0
   -6.7797   -2.4193   -0.1839 N   0  0  0  0  0  0  0  0  0  0  0  0
   -5.3583    0.4824   -3.4406 N   0  0  0  0  0  0  0  0  0  0  0  0
   -6.5431    0.5152   -4.1993 C   0  0  0  0  0  0  0  0  0  0  0  0
   -6.5024    0.4301   -5.5595 N   0  0  0  0  0  0  0  0  0  0  0  0
   -7.7439    0.7675   -3.6044 N   0  0  0  0  0  0  0  0  0  0  0  0
   -5.7611    1.8797    1.7292 C   0  0  0  0  0  0  0  0  0  0  0  0
   -5.0951    2.2267    0.5221 C   0  0  0  0  0  0  0  0  0  0  0  0
   -4.2791    3.3911    0.4745 C   0  0  0  0  0  0  0  0  0  0  0  0
   -4.1314    4.2039    1.6312 C   0  0  0  0  0  0  0  0  0  0  0  0
   -4.7987    3.8554    2.8347 C   0  0  0  0  0  0  0  0  0  0  0  0
   -5.6124    2.6930    2.8837 C   0  0  0  0  0  0  0  0  0  0  0  0
  2  4  1  0  0  0  0
  3  5  1  0  0  0  0
  4  7  1  0  0  0  0
  6  1  1  0  0  0  0
  7 10  1  0  0  0  0
  8  6  1  0  0  0  0
  8 11  1  0  0  0  0
  9  6  1  0  0  0  0
 10 13  1  0  0  0  0
 11 14  1  0  0  0  0
 12  9  1  0  0  0  0
 14 12  1  0  0  0  0
 14 15  1  0  0  0  0
 15 16  1  0  0  0  0
 15 17  1  0  0  0  0
 18  2  1  0  0  0  0
 18 23  2  0  0  0  0
 19  1  1  0  0  0  0
 19 18  1  0  0  0  0
 20 19  2  0  0  0  0
 21  3  1  0  0  0  0
 21 20  1  0  0  0  0
 22 21  2  0  0  0  0
 22 23  1  0  0  0  0
M  END
>  <CHROM.1>
173.26209628,61.22118685,-99.31054337,73.61573131,58.40819263,66.65755943
-177.78759326,-30.76388440,79.23401436,-123.28880528,106.49810809,-5.35687413
1.28827249,-0.46357705,-2.16369284,1.13796533,1.40926619

>  <Name>
1uui_lig

>  <RI>
0

>  <Rbt.Current_Directory>
/home/itssahil/PROJECTS/Mol_Feturizer/New_Systems/rnas/1uui

>  <Rbt.Executable>
rbdock ($Id: //depot/dev/client3/rdock/2013.1/src/exe/rbdock.cxx#4 $)

>  <Rbt.Library>
libRbt.so (2013.1, Build901 2013/11/27)

>  <Rbt.Parameter_File>
/export/apps/rDock/src/rDock_2013.1_src/data/scripts/dock_solv.prm

>  <Rbt.Receptor>
prm/pocket_docking_8.prm

>  <SCORE>
-27.262

>  <SCORE.INTER>
-20.7217

>  <SCORE.INTER.CONST>
1

>  <SCORE.INTER.POLAR>
-4.3053

>  <SCORE.INTER.ROT>
10

>  <SCORE.INTER.SOLV>
5.16191

>  <SCORE.INTER.VDW>
-11.4508

>  <SCORE.INTER.norm>
-0.900943

>  <SCORE.INTRA>
-6.54033

>  <SCORE.INTRA.DIHEDRAL>
-6.35396

>  <SCORE.INTRA.DIHEDRAL.0>
23.4151

>  <SCORE.INTRA.POLAR>
0

>  <SCORE.INTRA.POLAR.0>
0

>  <SCORE.INTRA.REPUL>
0

>  <SCORE.INTRA.REPUL.0>
0

>  <SCORE.INTRA.SOLV>
0.578747

>  <SCORE.INTRA.SOLV.lig_0>
-17.3568

>  <SCORE.INTRA.VDW>
-3.65273

>  <SCORE.INTRA.VDW.0>
1.0768

>  <SCORE.INTRA.norm>
-0.284362

>  <SCORE.RESTR>
0

>  <SCORE.RESTR.CAVITY>
0

>  <SCORE.RESTR.norm>
0

>  <SCORE.SYSTEM>
0

>  <SCORE.SYSTEM.CONST>
0

>  <SCORE.SYSTEM.DIHEDRAL>
0

>  <SCORE.SYSTEM.SOLV>
0

>  <SCORE.SYSTEM.norm>
0

>  <SCORE.heavy>
23

>  <SCORE.norm>
-1.1853

>  <RMSD>
8.496

$$$$
1uui_lig
 OpenBabel11021811413D
libRbt.so/2013.1/901 2013/11/27
 23 24  0  0  0  0  0  0  0  0999 V2000
   -5.3535   -2.5241    0.5887 C   0  0  0  0  0  0  0  0  0  0  0  0
   -6.5445   -1.2968   -1.7622 O   0  0  0  0  0  0  0  0  0  0  0  0
   -7.1601    1.3718    3.2382 O   0  0  0  0  0  0  0  0  0  0  0  0
   -5.3097   -0.9121   -2.3796 C   0  0  0  0  0  0  0  0  0  0  0  0
   -6.3884    2.5753    3.2374 C   0  0  0  0  0  0  0  0  0  0  0  0
   -4.7910   -2.8767    1.9336 N   0  0  0  0  0  0  0  0  0  0  0  0
   -5.5450   -0.6953   -3.8752 C   0  0  0  0  0  0  0  0  0  0  0  0
   -3.7048   -1.9385    2.3269 C   0  0  0  0  0  0  0  0  0  0  0  0
   -4.2708   -4.2694    1.9433 C   0  0  0  0  0  0  0  0  0  0  0  0
   -6.2483    0.6462   -4.1055 C   0  0  0  0  0  0  0  0  0  0  0  0
   -2.5282   -1.9734    1.3368 C   0  0  0  0  0  0  0  0  0  0  0  0
   -3.1586   -4.4669    0.8991 C   0  0  0  0  0  0  0  0  0  0  0  0
   -6.4864    0.8367   -5.5538 N   0  0  0  0  0  0  0  0  0  0  0  0
   -2.5880   -3.1647    0.4331 N   0  0  0  0  0  0  0  0  0  0  0  0
   -1.8730   -3.1334   -0.7786 C   0  0  0  0  0  0  0  0  0  0  0  0
   -2.3037   -2.3697   -1.8227 N   0  0  0  0  0  0  0  0  0  0  0  0
   -0.8125   -3.9660   -0.9828 N   0  0  0  0  0  0  0  0  0  0  0  0
   -6.6944   -0.6271   -0.5071 C   0  0  0  0  0  0  0  0  0  0  0  0
   -6.1298   -1.1893    0.6704 C   0  0  0  0  0  0  0  0  0  0  0  0
   -6.2853   -0.5220    1.9171 C   0  0  0  0  0  0  0  0  0  0  0  0
   -7.0032    0.7031    1.9835 C   0  0  0  0  0  0  0  0  0  0  0  0
   -7.5646    1.2626    0.8058 C   0  0  0  0  0  0  0  0  0  0  0  0
   -7.4110    0.5969   -0.4388 C   0  0  0  0  0  0  0  0  0  0  0  0
  2  4  1  0  0  0  0
  3  5  1  0  0  0  0
  4  7  1  0  0  0  0
  6  1  1  0  0  0  0
  7 10  1  0  0  0  0
  8  6  1  0  0  0  0
  8 11  1  0  0  0  0
  9  6  1  0  0  0  0
 10 13  1  0  0  0  0
 11 14  1  0  0  0  0
 12  9  1  0  0  0  0
 14 12  1  0  0  0  0
 14 15  1  0  0  0  0
 15 16  1  0  0  0  0
 15 17  1  0  0  0  0
 18  2  1  0  0  0  0
 18 23  2  0  0  0  0
 19  1  1  0  0  0  0
 19 18  1  0  0  0  0
 20 19  2  0  0  0  0
 21  3  1  0  0  0  0
 21 20  1  0  0  0  0
 22 21  2  0  0  0  0
 22 23  1  0  0  0  0
M  END
>  <CHROM.1>
-138.35478951,76.49603064,-68.80937811,-179.26586135,-46.67703680,-73.23088807
89.66722077,21.50982566,-86.44598670,176.90962633,110.51292695,-5.00937556
-1.22220318,-0.10378220,0.17732599,-0.77528173,1.62548664

>  <Name>
1uui_lig

>  <RI>
0

>  <Rbt.Current_Directory>
/home/itssahil/PROJECTS/Mol_Feturizer/New_Systems/rnas/1uui

>  <Rbt.Executable>
rbdock ($Id: //depot/dev/client3/rdock/2013.1/src/exe/rbdock.cxx#4 $)

>  <Rbt.Library>
libRbt.so (2013.1, Build901 2013/11/27)

>  <Rbt.Parameter_File>
/export/apps/rDock/src/rDock_2013.1_src/data/scripts/dock_solv.prm

>  <Rbt.Receptor>
prm/pocket_docking_8.prm

>  <SCORE>
-26.8972

>  <SCORE.INTER>
-23.5441

>  <SCORE.INTER.CONST>
1

>  <SCORE.INTER.POLAR>
-3.26613

>  <SCORE.INTER.ROT>
10

>  <SCORE.INTER.SOLV>
5.30615

>  <SCORE.INTER.VDW>
-16.8443

>  <SCORE.INTER.norm>
-1.02366

>  <SCORE.INTRA>
-3.35308

>  <SCORE.INTRA.DIHEDRAL>
-2.85295

>  <SCORE.INTRA.DIHEDRAL.0>
23.4151

>  <SCORE.INTRA.POLAR>
0

>  <SCORE.INTRA.POLAR.0>
0

>  <SCORE.INTRA.REPUL>
0

>  <SCORE.INTRA.REPUL.0>
0

>  <SCORE.INTRA.SOLV>
0.319889

>  <SCORE.INTRA.SOLV.lig_0>
-17.3568

>  <SCORE.INTRA.VDW>
-2.08655

>  <SCORE.INTRA.VDW.0>
1.0768

>  <SCORE.INTRA.norm>
-0.145786

>  <SCORE.RESTR>
0

>  <SCORE.RESTR.CAVITY>
0

>  <SCORE.RESTR.norm>
0

>  <SCORE.SYSTEM>
0

>  <SCORE.SYSTEM.CONST>
0

>  <SCORE.SYSTEM.DIHEDRAL>
0

>  <SCORE.SYSTEM.SOLV>
0

>  <SCORE.SYSTEM.norm>
0

>  <SCORE.heavy>
23

>  <SCORE.norm>
-1.16944

>  <RMSD>
8.539

$$$$
1uui_lig
 OpenBabel11021811413D
libRbt.so/2013.1/901 2013/11/27
 23 24  0  0  0  0  0  0  0  0999 V2000
   -5.2393    0.0930    1.6033 C   0  0  0  0  0  0  0  0  0  0  0  0
   -6.5513    2.0853    3.2648 O   0  0  0  0  0  0  0  0  0  0  0  0
   -0.9060    2.4880    2.5774 O   0  0  0  0  0  0  0  0  0  0  0  0
   -7.1913    3.2791    2.7966 C   0  0  0  0  0  0  0  0  0  0  0  0
   -0.2592    1.4802    3.3585 C   0  0  0  0  0  0  0  0  0  0  0  0
   -5.9804   -0.7072    2.6328 N   0  0  0  0  0  0  0  0  0  0  0  0
   -8.7037    3.1389    2.9764 C   0  0  0  0  0  0  0  0  0  0  0  0
   -5.0415   -1.4398    3.5252 C   0  0  0  0  0  0  0  0  0  0  0  0
   -6.9075   -1.6741    1.9877 C   0  0  0  0  0  0  0  0  0  0  0  0
   -9.4070    4.4186    2.5129 C   0  0  0  0  0  0  0  0  0  0  0  0
   -4.1644   -2.4339    2.7453 C   0  0  0  0  0  0  0  0  0  0  0  0
   -6.1559   -2.6581    1.0751 C   0  0  0  0  0  0  0  0  0  0  0  0
   -9.2839    4.5453    1.0434 N   0  0  0  0  0  0  0  0  0  0  0  0
   -4.6888   -2.6861    1.3665 N   0  0  0  0  0  0  0  0  0  0  0  0
   -3.8142   -3.2020    0.3921 C   0  0  0  0  0  0  0  0  0  0  0  0
   -3.4552   -2.4530   -0.6891 N   0  0  0  0  0  0  0  0  0  0  0  0
   -3.4138   -4.5048    0.4360 N   0  0  0  0  0  0  0  0  0  0  0  0
   -5.1355    2.1866    3.0878 C   0  0  0  0  0  0  0  0  0  0  0  0
   -4.4498    1.2348    2.2846 C   0  0  0  0  0  0  0  0  0  0  0  0
   -3.0410    1.3369    2.1151 C   0  0  0  0  0  0  0  0  0  0  0  0
   -2.3228    2.3879    2.7475 C   0  0  0  0  0  0  0  0  0  0  0  0
   -3.0105    3.3375    3.5479 C   0  0  0  0  0  0  0  0  0  0  0  0
   -4.4163    3.2359    3.7186 C   0  0  0  0  0  0  0  0  0  0  0  0
  2  4  1  0  0  0  0
  3  5  1  0  0  0  0
  4  7  1  0  0  0  0
  6  1  1  0  0  0  0
  7 10  1  0  0  0  0
  8  6  1  0  0  0  0
  8 11  1  0  0  0  0
  9  6  1  0  0  0  0
 10 13  1  0  0  0  0
 11 14  1  0  0  0  0
 12  9  1  0  0  0  0
 14 12  1  0  0  0  0
 14 15  1  0  0  0  0
 15 16  1  0  0  0  0
 15 17  1  0  0  0  0
 18  2  1  0  0  0  0
 18 23  2  0  0  0  0
 19  1  1  0  0  0  0
 19 18  1  0  0  0  0
 20 19  2  0  0  0  0
 21  3  1  0  0  0  0
 21 20  1  0  0  0  0
 22 21  2  0  0  0  0
 22 23  1  0  0  0  0
M  END
>  <CHROM.1>
179.15050157,178.65252705,-66.60793628,68.76713927,-178.31212555,-113.42736062
-51.80342775,-32.87070944,-120.84756791,-57.33185938,-74.64923184,-4.96697479
0.56143727,2.18020609,1.03797946,0.12445493,-2.84299905

>  <Name>
1uui_lig

>  <RI>
0

>  <Rbt.Current_Directory>
/home/itssahil/PROJECTS/Mol_Feturizer/New_Systems/rnas/1uui

>  <Rbt.Executable>
rbdock ($Id: //depot/dev/client3/rdock/2013.1/src/exe/rbdock.cxx#4 $)

>  <Rbt.Library>
libRbt.so (2013.1, Build901 2013/11/27)

>  <Rbt.Parameter_File>
/export/apps/rDock/src/rDock_2013.1_src/data/scripts/dock_solv.prm

>  <Rbt.Receptor>
prm/pocket_docking_6.prm

>  <SCORE>
-15.0916

>  <SCORE.INTER>
-5.0637

>  <SCORE.INTER.CONST>
1

>  <SCORE.INTER.POLAR>
0

>  <SCORE.INTER.ROT>
10

>  <SCORE.INTER.SOLV>
5.04806

>  <SCORE.INTER.VDW>
-15.3252

>  <SCORE.INTER.norm>
-0.220161

>  <SCORE.INTRA>
-10.0279

>  <SCORE.INTRA.DIHEDRAL>
-10.7051

>  <SCORE.INTRA.DIHEDRAL.0>
23.4151

>  <SCORE.INTRA.POLAR>
-0.600183

>  <SCORE.INTRA.POLAR.0>
0

>  <SCORE.INTRA.REPUL>
0

>  <SCORE.INTRA.REPUL.0>
0

>  <SCORE.INTRA.SOLV>
0.313694

>  <SCORE.INTRA.SOLV.lig_0>
-17.3568

>  <SCORE.INTRA.VDW>
-2.79162

>  <SCORE.INTRA.VDW.0>
1.0768

>  <SCORE.INTRA.norm>
-0.435997

>  <SCORE.RESTR>
0

>  <SCORE.RESTR.CAVITY>
0

>  <SCORE.RESTR.norm>
0

>  <SCORE.SYSTEM>
0

>  <SCORE.SYSTEM.CONST>
0

>  <SCORE.SYSTEM.DIHEDRAL>
0

>  <SCORE.SYSTEM.SOLV>
0

>  <SCORE.SYSTEM.norm>
0

>  <SCORE.heavy>
23

>  <SCORE.norm>
-0.656158

>  <RMSD>
8.548

$$$$
1uui_lig
 OpenBabel11021811413D
libRbt.so/2013.1/901 2013/11/27
 23 24  0  0  0  0  0  0  0  0999 V2000
  -13.2057    3.3321    6.3759 C   0  0  0  0  0  0  0  0  0  0  0  0
  -12.1478    5.9032    7.2254 O   0  0  0  0  0  0  0  0  0  0  0  0
  -17.3375    4.4191    9.0607 O   0  0  0  0  0  0  0  0  0  0  0  0
  -12.1484    7.2791    6.8241 C   0  0  0  0  0  0  0  0  0  0  0  0
  -18.3199    4.8770    8.1284 C   0  0  0  0  0  0  0  0  0  0  0  0
  -13.4060    3.7182    4.9405 N   0  0  0  0  0  0  0  0  0  0  0  0
  -11.7761    8.1501    8.0248 C   0  0  0  0  0  0  0  0  0  0  0  0
  -14.7048    3.2099    4.4214 C   0  0  0  0  0  0  0  0  0  0  0  0
  -12.2980    3.2046    4.0927 C   0  0  0  0  0  0  0  0  0  0  0  0
  -10.3381    7.8528    8.4617 C   0  0  0  0  0  0  0  0  0  0  0  0
  -14.7856    1.6750    4.4779 C   0  0  0  0  0  0  0  0  0  0  0  0
  -12.1961    1.6712    4.1600 C   0  0  0  0  0  0  0  0  0  0  0  0
  -10.2739    6.5020    9.0631 N   0  0  0  0  0  0  0  0  0  0  0  0
  -13.4448    1.0484    4.6997 N   0  0  0  0  0  0  0  0  0  0  0  0
  -13.3846   -0.2654    5.2007 C   0  0  0  0  0  0  0  0  0  0  0  0
  -12.1874   -0.9004    5.3501 N   0  0  0  0  0  0  0  0  0  0  0  0
  -14.5254   -0.9794    5.4206 N   0  0  0  0  0  0  0  0  0  0  0  0
  -13.4481    5.5270    7.6878 C   0  0  0  0  0  0  0  0  0  0  0  0
  -14.0076    4.2794    7.2982 C   0  0  0  0  0  0  0  0  0  0  0  0
  -15.3030    3.9116    7.7569 C   0  0  0  0  0  0  0  0  0  0  0  0
  -16.0343    4.7899    8.6020 C   0  0  0  0  0  0  0  0  0  0  0  0
  -15.4725    6.0344    8.9902 C   0  0  0  0  0  0  0  0  0  0  0  0
  -14.1802    6.4031    8.5322 C   0  0  0  0  0  0  0  0  0  0  0  0
  2  4  1  0  0  0  0
  3  5  1  0  0  0  0
  4  7  1  0  0  0  0
  6  1  1  0  0  0  0
  7 10  1  0  0  0  0
  8  6  1  0  0  0  0
  8 11  1  0  0  0  0
  9  6  1  0  0  0  0
 10 13  1  0  0  0  0
 11 14  1  0  0  0  0
 12  9  1  0  0  0  0
 14 12  1  0  0  0  0
 14 15  1  0  0  0  0
 15 16  1  0  0  0  0
 15 17  1  0  0  0  0
 18  2  1  0  0  0  0
 18 23  2  0  0  0  0
 19  1  1  0  0  0  0
 19 18  1  0  0  0  0
 20 19  2  0  0  0  0
 21  3  1  0  0  0  0
 21 20  1  0  0  0  0
 22 21  2  0  0  0  0
 22 23  1  0  0  0  0
M  END
>  <CHROM.1>
90.34192884,64.79549330,-79.47320888,-69.91244743,46.24165184,176.45345720
137.05619017,140.63196864,136.91818899,-84.22261267,-89.78990201,-13.65670060
3.94412393,6.72129831,-1.67754158,0.28794203,0.53619688

>  <Name>
1uui_lig

>  <RI>
0

>  <Rbt.Current_Directory>
/home/itssahil/PROJECTS/Mol_Feturizer/New_Systems/rnas/1uui

>  <Rbt.Executable>
rbdock ($Id: //depot/dev/client3/rdock/2013.1/src/exe/rbdock.cxx#4 $)

>  <Rbt.Library>
libRbt.so (2013.1, Build901 2013/11/27)

>  <Rbt.Parameter_File>
/export/apps/rDock/src/rDock_2013.1_src/data/scripts/dock_solv.prm

>  <Rbt.Receptor>
prm/pocket_docking_8.prm

>  <SCORE>
-22.3476

>  <SCORE.INTER>
-17.0453

>  <SCORE.INTER.CONST>
1

>  <SCORE.INTER.POLAR>
-2.11992

>  <SCORE.INTER.ROT>
10

>  <SCORE.INTER.SOLV>
6.58216

>  <SCORE.INTER.VDW>
-16.7578

>  <SCORE.INTER.norm>
-0.741099

>  <SCORE.INTRA>
-5.30235

>  <SCORE.INTRA.DIHEDRAL>
-6.55091

>  <SCORE.INTRA.DIHEDRAL.0>
23.4151

>  <SCORE.INTRA.POLAR>
-0.740072

>  <SCORE.INTRA.POLAR.0>
0

>  <SCORE.INTRA.REPUL>
0

>  <SCORE.INTRA.REPUL.0>
0

>  <SCORE.INTRA.SOLV>
0.711238

>  <SCORE.INTRA.SOLV.lig_0>
-17.3568

>  <SCORE.INTRA.VDW>
0.13373

>  <SCORE.INTRA.VDW.0>
1.0768

>  <SCORE.INTRA.norm>
-0.230537

>  <SCORE.RESTR>
0

>  <SCORE.RESTR.CAVITY>
0

>  <SCORE.RESTR.norm>
0

>  <SCORE.SYSTEM>
0

>  <SCORE.SYSTEM.CONST>
0

>  <SCORE.SYSTEM.DIHEDRAL>
0

>  <SCORE.SYSTEM.SOLV>
0

>  <SCORE.SYSTEM.norm>
0

>  <SCORE.heavy>
23

>  <SCORE.norm>
-0.971636

>  <RMSD>
8.599

$$$$
1uui_lig
 OpenBabel11021811413D
libRbt.so/2013.1/901 2013/11/27
 23 24  0  0  0  0  0  0  0  0999 V2000
   -6.9633    0.1930   -2.3185 C   0  0  0  0  0  0  0  0  0  0  0  0
   -9.3489   -0.9485   -1.1114 O   0  0  0  0  0  0  0  0  0  0  0  0
   -4.3006   -2.3089    1.1618 O   0  0  0  0  0  0  0  0  0  0  0  0
   -9.8055    0.3054   -0.5884 C   0  0  0  0  0  0  0  0  0  0  0  0
   -4.2193   -1.7921    2.4924 C   0  0  0  0  0  0  0  0  0  0  0  0
   -5.9034   -0.1675   -3.3165 N   0  0  0  0  0  0  0  0  0  0  0  0
  -10.9194    0.8456   -1.4865 C   0  0  0  0  0  0  0  0  0  0  0  0
   -4.6797    0.6578   -3.1258 C   0  0  0  0  0  0  0  0  0  0  0  0
   -6.4033    0.0008   -4.7065 C   0  0  0  0  0  0  0  0  0  0  0  0
  -12.0107   -0.2150   -1.6628 C   0  0  0  0  0  0  0  0  0  0  0  0
   -4.9636    2.1582   -3.3104 C   0  0  0  0  0  0  0  0  0  0  0  0
   -6.8380    1.4505   -4.9813 C   0  0  0  0  0  0  0  0  0  0  0  0
  -13.0117    0.2643   -2.6419 N   0  0  0  0  0  0  0  0  0  0  0  0
   -6.2838    2.4044   -3.9708 N   0  0  0  0  0  0  0  0  0  0  0  0
   -6.8884    3.6672   -3.8282 C   0  0  0  0  0  0  0  0  0  0  0  0
   -8.1569    3.7818   -3.3417 N   0  0  0  0  0  0  0  0  0  0  0  0
   -6.2734    4.7903   -4.2972 N   0  0  0  0  0  0  0  0  0  0  0  0
   -8.0814   -1.2853   -0.5403 C   0  0  0  0  0  0  0  0  0  0  0  0
   -6.8869   -0.7520   -1.0969 C   0  0  0  0  0  0  0  0  0  0  0  0
   -5.6283   -1.0934   -0.5283 C   0  0  0  0  0  0  0  0  0  0  0  0
   -5.5671   -1.9652    0.5926 C   0  0  0  0  0  0  0  0  0  0  0  0
   -6.7618   -2.4951    1.1469 C   0  0  0  0  0  0  0  0  0  0  0  0
   -8.0184   -2.1560    0.5797 C   0  0  0  0  0  0  0  0  0  0  0  0
  2  4  1  0  0  0  0
  3  5  1  0  0  0  0
  4  7  1  0  0  0  0
  6  1  1  0  0  0  0
  7 10  1  0  0  0  0
  8  6  1  0  0  0  0
  8 11  1  0  0  0  0
  9  6  1  0  0  0  0
 10 13  1  0  0  0  0
 11 14  1  0  0  0  0
 12  9  1  0  0  0  0
 14 12  1  0  0  0  0
 14 15  1  0  0  0  0
 15 16  1  0  0  0  0
 15 17  1  0  0  0  0
 18  2  1  0  0  0  0
 18 23  2  0  0  0  0
 19  1  1  0  0  0  0
 19 18  1  0  0  0  0
 20 19  2  0  0  0  0
 21  3  1  0  0  0  0
 21 20  1  0  0  0  0
 22 21  2  0  0  0  0
 22 23  1  0  0  0  0
M  END
>  <CHROM.1>
163.42350658,53.16194988,-94.74616057,-174.21443136,172.71716015,-124.88886523
-85.78955038,27.15987132,-83.71897899,-136.72044909,115.22352385,-7.34997145
0.29116262,-1.82204286,-1.85298373,0.02282315,2.34693837

>  <Name>
1uui_lig

>  <RI>
0

>  <Rbt.Current_Directory>
/home/itssahil/PROJECTS/Mol_Feturizer/New_Systems/rnas/1uui

>  <Rbt.Executable>
rbdock ($Id: //depot/dev/client3/rdock/2013.1/src/exe/rbdock.cxx#4 $)

>  <Rbt.Library>
libRbt.so (2013.1, Build901 2013/11/27)

>  <Rbt.Parameter_File>
/export/apps/rDock/src/rDock_2013.1_src/data/scripts/dock_solv.prm

>  <Rbt.Receptor>
prm/pocket_docking_7.prm

>  <SCORE>
-16.9766

>  <SCORE.INTER>
-11.7212

>  <SCORE.INTER.CONST>
1

>  <SCORE.INTER.POLAR>
-0.748331

>  <SCORE.INTER.ROT>
10

>  <SCORE.INTER.SOLV>
5.16983

>  <SCORE.INTER.VDW>
-17.3097

>  <SCORE.INTER.norm>
-0.509619

>  <SCORE.INTRA>
-5.25539

>  <SCORE.INTRA.DIHEDRAL>
-6.40042

>  <SCORE.INTRA.DIHEDRAL.0>
23.4151

>  <SCORE.INTRA.POLAR>
0

>  <SCORE.INTRA.POLAR.0>
0

>  <SCORE.INTRA.REPUL>
0

>  <SCORE.INTRA.REPUL.0>
0

>  <SCORE.INTRA.SOLV>
0.0012306

>  <SCORE.INTRA.SOLV.lig_0>
-17.3568

>  <SCORE.INTRA.VDW>
-2.0558

>  <SCORE.INTRA.VDW.0>
1.0768

>  <SCORE.INTRA.norm>
-0.228495

>  <SCORE.RESTR>
0

>  <SCORE.RESTR.CAVITY>
0

>  <SCORE.RESTR.norm>
0

>  <SCORE.SYSTEM>
0

>  <SCORE.SYSTEM.CONST>
0

>  <SCORE.SYSTEM.DIHEDRAL>
0

>  <SCORE.SYSTEM.SOLV>
0

>  <SCORE.SYSTEM.norm>
0

>  <SCORE.heavy>
23

>  <SCORE.norm>
-0.738114

>  <RMSD>
8.631

$$$$
1uui_lig
 OpenBabel11021811413D
libRbt.so/2013.1/901 2013/11/27
 23 24  0  0  0  0  0  0  0  0999 V2000
   -5.9771   -0.2081   -1.1077 C   0  0  0  0  0  0  0  0  0  0  0  0
   -4.7154   -0.0874    1.5085 O   0  0  0  0  0  0  0  0  0  0  0  0
   -3.8215   -4.7358   -1.6690 O   0  0  0  0  0  0  0  0  0  0  0  0
   -5.0025   -0.4692    2.8598 C   0  0  0  0  0  0  0  0  0  0  0  0
   -2.4327   -5.0742   -1.6420 C   0  0  0  0  0  0  0  0  0  0  0  0
   -5.3847    1.1185   -0.7355 N   0  0  0  0  0  0  0  0  0  0  0  0
   -5.0850    0.7875    3.7275 C   0  0  0  0  0  0  0  0  0  0  0  0
   -6.4276    2.1788   -0.6808 C   0  0  0  0  0  0  0  0  0  0  0  0
   -4.3240    1.5156   -1.6987 C   0  0  0  0  0  0  0  0  0  0  0  0
   -3.7551    1.5465    3.6778 C   0  0  0  0  0  0  0  0  0  0  0  0
   -7.1209    2.3741   -2.0399 C   0  0  0  0  0  0  0  0  0  0  0  0
   -4.8720    1.6278   -3.1316 C   0  0  0  0  0  0  0  0  0  0  0  0
   -2.9215    1.1586    4.8376 N   0  0  0  0  0  0  0  0  0  0  0  0
   -6.3647    1.7247   -3.1562 N   0  0  0  0  0  0  0  0  0  0  0  0
   -7.0431    1.4300   -4.3535 C   0  0  0  0  0  0  0  0  0  0  0  0
   -7.2838    2.4044   -5.2763 N   0  0  0  0  0  0  0  0  0  0  0  0
   -7.5917    0.1984   -4.5577 N   0  0  0  0  0  0  0  0  0  0  0  0
   -4.4894   -1.2510    0.7079 C   0  0  0  0  0  0  0  0  0  0  0  0
   -5.0860   -1.3556   -0.5783 C   0  0  0  0  0  0  0  0  0  0  0  0
   -4.8621   -2.5168   -1.3691 C   0  0  0  0  0  0  0  0  0  0  0  0
   -4.0441   -3.5682   -0.8732 C   0  0  0  0  0  0  0  0  0  0  0  0
   -3.4487   -3.4602    0.4110 C   0  0  0  0  0  0  0  0  0  0  0  0
   -3.6724   -2.3023    1.2015 C   0  0  0  0  0  0  0  0  0  0  0  0
  2  4  1  0  0  0  0
  3  5  1  0  0  0  0
  4  7  1  0  0  0  0
  6  1  1  0  0  0  0
  7 10  1  0  0  0  0
  8  6  1  0  0  0  0
  8 11  1  0  0  0  0
  9  6  1  0  0  0  0
 10 13  1  0  0  0  0
 11 14  1  0  0  0  0
 12  9  1  0  0  0  0
 14 12  1  0  0  0  0
 14 15  1  0  0  0  0
 15 16  1  0  0  0  0
 15 17  1  0  0  0  0
 18  2  1  0  0  0  0
 18 23  2  0  0  0  0
 19  1  1  0  0  0  0
 19 18  1  0  0  0  0
 20 19  2  0  0  0  0
 21  3  1  0  0  0  0
 21 20  1  0  0  0  0
 22 21  2  0  0  0  0
 22 23  1  0  0  0  0
M  END
>  <CHROM.1>
173.71600486,-59.69514643,-155.33279210,-95.49516284,51.44798292,79.22235792
98.73623162,-15.13393533,135.26688489,39.77789222,134.65115801,-5.03641490
-0.25735802,-0.60425605,2.69558934,1.09953384,-2.26536643

>  <Name>
1uui_lig

>  <RI>
0

>  <Rbt.Current_Directory>
/home/itssahil/PROJECTS/Mol_Feturizer/New_Systems/rnas/1uui

>  <Rbt.Executable>
rbdock ($Id: //depot/dev/client3/rdock/2013.1/src/exe/rbdock.cxx#4 $)

>  <Rbt.Library>
libRbt.so (2013.1, Build901 2013/11/27)

>  <Rbt.Parameter_File>
/export/apps/rDock/src/rDock_2013.1_src/data/scripts/dock_solv.prm

>  <Rbt.Receptor>
prm/pocket_docking_8.prm

>  <SCORE>
-33.1119

>  <SCORE.INTER>
-26.1895

>  <SCORE.INTER.CONST>
1

>  <SCORE.INTER.POLAR>
-4.46898

>  <SCORE.INTER.ROT>
10

>  <SCORE.INTER.SOLV>
6.6127

>  <SCORE.INTER.VDW>
-15.034

>  <SCORE.INTER.norm>
-1.13867

>  <SCORE.INTRA>
-6.92242

>  <SCORE.INTRA.DIHEDRAL>
-9.05997

>  <SCORE.INTRA.DIHEDRAL.0>
23.4151

>  <SCORE.INTRA.POLAR>
-0.843382

>  <SCORE.INTRA.POLAR.0>
0

>  <SCORE.INTRA.REPUL>
0

>  <SCORE.INTRA.REPUL.0>
0

>  <SCORE.INTRA.SOLV>
0.424562

>  <SCORE.INTRA.SOLV.lig_0>
-17.3568

>  <SCORE.INTRA.VDW>
0.262778

>  <SCORE.INTRA.VDW.0>
1.0768

>  <SCORE.INTRA.norm>
-0.300975

>  <SCORE.RESTR>
0

>  <SCORE.RESTR.CAVITY>
0

>  <SCORE.RESTR.norm>
0

>  <SCORE.SYSTEM>
0

>  <SCORE.SYSTEM.CONST>
0

>  <SCORE.SYSTEM.DIHEDRAL>
0

>  <SCORE.SYSTEM.SOLV>
0

>  <SCORE.SYSTEM.norm>
0

>  <SCORE.heavy>
23

>  <SCORE.norm>
-1.43965

>  <RMSD>
8.641

$$$$
1uui_lig
 OpenBabel11021811413D
libRbt.so/2013.1/901 2013/11/27
 23 24  0  0  0  0  0  0  0  0999 V2000
   -4.7292   -0.7951    1.2926 C   0  0  0  0  0  0  0  0  0  0  0  0
   -7.1518    0.1103    2.6203 O   0  0  0  0  0  0  0  0  0  0  0  0
   -2.4640    3.3101    3.1575 O   0  0  0  0  0  0  0  0  0  0  0  0
   -7.9819    0.6218    1.5698 C   0  0  0  0  0  0  0  0  0  0  0  0
   -1.4658    2.5751    3.8699 C   0  0  0  0  0  0  0  0  0  0  0  0
   -5.1490   -1.9565    2.1437 N   0  0  0  0  0  0  0  0  0  0  0  0
   -9.2744   -0.1938    1.5120 C   0  0  0  0  0  0  0  0  0  0  0  0
   -4.1758   -2.1995    3.2430 C   0  0  0  0  0  0  0  0  0  0  0  0
   -5.2915   -3.1901    1.3260 C   0  0  0  0  0  0  0  0  0  0  0  0
  -10.1699    0.3235    0.3818 C   0  0  0  0  0  0  0  0  0  0  0  0
   -2.7735   -2.5335    2.7062 C   0  0  0  0  0  0  0  0  0  0  0  0
   -3.9716   -3.5657    0.6312 C   0  0  0  0  0  0  0  0  0  0  0  0
   -9.6125   -0.0991   -0.9226 N   0  0  0  0  0  0  0  0  0  0  0  0
   -2.7955   -2.8787    1.2502 N   0  0  0  0  0  0  0  0  0  0  0  0
   -1.6006   -2.7846    0.5128 C   0  0  0  0  0  0  0  0  0  0  0  0
   -0.4793   -3.4481    0.9146 N   0  0  0  0  0  0  0  0  0  0  0  0
   -1.4985   -1.9246   -0.5406 N   0  0  0  0  0  0  0  0  0  0  0  0
   -5.9754    0.9135    2.7505 C   0  0  0  0  0  0  0  0  0  0  0  0
   -4.7666    0.5110    2.1196 C   0  0  0  0  0  0  0  0  0  0  0  0
   -3.5979    1.3107    2.2557 C   0  0  0  0  0  0  0  0  0  0  0  0
   -3.6405    2.5082    3.0203 C   0  0  0  0  0  0  0  0  0  0  0  0
   -4.8494    2.9081    3.6480 C   0  0  0  0  0  0  0  0  0  0  0  0
   -6.0160    2.1102    3.5138 C   0  0  0  0  0  0  0  0  0  0  0  0
  2  4  1  0  0  0  0
  3  5  1  0  0  0  0
  4  7  1  0  0  0  0
  6  1  1  0  0  0  0
  7 10  1  0  0  0  0
  8  6  1  0  0  0  0
  8 11  1  0  0  0  0
  9  6  1  0  0  0  0
 10 13  1  0  0  0  0
 11 14  1  0  0  0  0
 12  9  1  0  0  0  0
 14 12  1  0  0  0  0
 14 15  1  0  0  0  0
 15 16  1  0  0  0  0
 15 17  1  0  0  0  0
 18  2  1  0  0  0  0
 18 23  2  0  0  0  0
 19  1  1  0  0  0  0
 19 18  1  0  0  0  0
 20 19  2  0  0  0  0
 21  3  1  0  0  0  0
 21 20  1  0  0  0  0
 22 21  2  0  0  0  0
 22 23  1  0  0  0  0
M  END
>  <CHROM.1>
-176.21944762,-179.20525541,-65.27777095,73.82635464,-61.24856213,54.90136419
46.82512241,16.71653597,-96.84542597,-57.19957214,-64.42129239,-4.75562593
-0.40667809,1.81689333,0.32520309,0.18366802,-2.69193851

>  <Name>
1uui_lig

>  <RI>
0

>  <Rbt.Current_Directory>
/home/itssahil/PROJECTS/Mol_Feturizer/New_Systems/rnas/1uui

>  <Rbt.Executable>
rbdock ($Id: //depot/dev/client3/rdock/2013.1/src/exe/rbdock.cxx#4 $)

>  <Rbt.Library>
libRbt.so (2013.1, Build901 2013/11/27)

>  <Rbt.Parameter_File>
/export/apps/rDock/src/rDock_2013.1_src/data/scripts/dock_solv.prm

>  <Rbt.Receptor>
prm/pocket_docking_6.prm

>  <SCORE>
-19.2433

>  <SCORE.INTER>
-9.36092

>  <SCORE.INTER.CONST>
1

>  <SCORE.INTER.POLAR>
-0.663325

>  <SCORE.INTER.ROT>
10

>  <SCORE.INTER.SOLV>
5.68083

>  <SCORE.INTER.VDW>
-16.1898

>  <SCORE.INTER.norm>
-0.406997

>  <SCORE.INTRA>
-9.88234

>  <SCORE.INTRA.DIHEDRAL>
-9.58561

>  <SCORE.INTRA.DIHEDRAL.0>
23.4151

>  <SCORE.INTRA.POLAR>
-0.596048

>  <SCORE.INTRA.POLAR.0>
0

>  <SCORE.INTRA.REPUL>
0

>  <SCORE.INTRA.REPUL.0>
0

>  <SCORE.INTRA.SOLV>
0.357077

>  <SCORE.INTRA.SOLV.lig_0>
-17.3568

>  <SCORE.INTRA.VDW>
-3.24151

>  <SCORE.INTRA.VDW.0>
1.0768

>  <SCORE.INTRA.norm>
-0.429667

>  <SCORE.RESTR>
0

>  <SCORE.RESTR.CAVITY>
0

>  <SCORE.RESTR.norm>
0

>  <SCORE.SYSTEM>
0

>  <SCORE.SYSTEM.CONST>
0

>  <SCORE.SYSTEM.DIHEDRAL>
0

>  <SCORE.SYSTEM.SOLV>
0

>  <SCORE.SYSTEM.norm>
0

>  <SCORE.heavy>
23

>  <SCORE.norm>
-0.836664

>  <RMSD>
8.745

$$$$
1uui_lig
 OpenBabel11021811413D
libRbt.so/2013.1/901 2013/11/27
 23 24  0  0  0  0  0  0  0  0999 V2000
   -3.4581   -0.5126    1.8517 C   0  0  0  0  0  0  0  0  0  0  0  0
   -4.7928    2.0213    2.3511 O   0  0  0  0  0  0  0  0  0  0  0  0
    0.5942    1.4514    4.1285 O   0  0  0  0  0  0  0  0  0  0  0  0
   -5.6818    1.9929    3.4749 C   0  0  0  0  0  0  0  0  0  0  0  0
    1.4781    1.5069    3.0062 C   0  0  0  0  0  0  0  0  0  0  0  0
   -3.7060   -1.6363    2.8137 N   0  0  0  0  0  0  0  0  0  0  0  0
   -7.1254    1.9790    2.9699 C   0  0  0  0  0  0  0  0  0  0  0  0
   -3.8753   -2.9307    2.0992 C   0  0  0  0  0  0  0  0  0  0  0  0
   -4.9088   -1.3679    3.6453 C   0  0  0  0  0  0  0  0  0  0  0  0
   -7.4662    3.3244    2.3211 C   0  0  0  0  0  0  0  0  0  0  0  0
   -5.0754   -2.9040    1.1375 C   0  0  0  0  0  0  0  0  0  0  0  0
   -6.1698   -1.1987    2.7808 C   0  0  0  0  0  0  0  0  0  0  0  0
   -8.9013    3.3491    1.9600 N   0  0  0  0  0  0  0  0  0  0  0  0
   -5.9813   -1.7419    1.3997 N   0  0  0  0  0  0  0  0  0  0  0  0
   -6.8549   -1.3196    0.3804 C   0  0  0  0  0  0  0  0  0  0  0  0
   -6.7236   -0.0851   -0.1831 N   0  0  0  0  0  0  0  0  0  0  0  0
   -7.9317   -2.0784    0.0279 N   0  0  0  0  0  0  0  0  0  0  0  0
   -3.4399    1.8773    2.7927 C   0  0  0  0  0  0  0  0  0  0  0  0
   -2.7461    0.6562    2.5715 C   0  0  0  0  0  0  0  0  0  0  0  0
   -1.4022    0.5161    3.0166 C   0  0  0  0  0  0  0  0  0  0  0  0
   -0.7565    1.5947    3.6801 C   0  0  0  0  0  0  0  0  0  0  0  0
   -1.4515    2.8131    3.8984 C   0  0  0  0  0  0  0  0  0  0  0  0
   -2.7931    2.9537    3.4557 C   0  0  0  0  0  0  0  0  0  0  0  0
  2  4  1  0  0  0  0
  3  5  1  0  0  0  0
  4  7  1  0  0  0  0
  6  1  1  0  0  0  0
  7 10  1  0  0  0  0
  8  6  1  0  0  0  0
  8 11  1  0  0  0  0
  9  6  1  0  0  0  0
 10 13  1  0  0  0  0
 11 14  1  0  0  0  0
 12  9  1  0  0  0  0
 14 12  1  0  0  0  0
 14 15  1  0  0  0  0
 15 16  1  0  0  0  0
 15 17  1  0  0  0  0
 18  2  1  0  0  0  0
 18 23  2  0  0  0  0
 19  1  1  0  0  0  0
 19 18  1  0  0  0  0
 20 19  2  0  0  0  0
 21  3  1  0  0  0  0
 21 20  1  0  0  0  0
 22 21  2  0  0  0  0
 22 23  1  0  0  0  0
M  END
>  <CHROM.1>
-173.27518725,-68.66279312,-157.52609744,-174.32874486,-55.01561238,-115.65361272
44.32609104,78.46130353,106.89064922,-111.00987615,74.16806212,-4.39884796
0.44067982,2.37945873,-0.30674169,0.24612602,-2.86595706

>  <Name>
1uui_lig

>  <RI>
0

>  <Rbt.Current_Directory>
/home/itssahil/PROJECTS/Mol_Feturizer/New_Systems/rnas/1uui

>  <Rbt.Executable>
rbdock ($Id: //depot/dev/client3/rdock/2013.1/src/exe/rbdock.cxx#4 $)

>  <Rbt.Library>
libRbt.so (2013.1, Build901 2013/11/27)

>  <Rbt.Parameter_File>
/export/apps/rDock/src/rDock_2013.1_src/data/scripts/dock_solv.prm

>  <Rbt.Receptor>
prm/pocket_docking_7.prm

>  <SCORE>
-20.2844

>  <SCORE.INTER>
-12.1769

>  <SCORE.INTER.CONST>
1

>  <SCORE.INTER.POLAR>
-1.95471

>  <SCORE.INTER.ROT>
10

>  <SCORE.INTER.SOLV>
5.52578

>  <SCORE.INTER.VDW>
-13.7108

>  <SCORE.INTER.norm>
-0.529428

>  <SCORE.INTRA>
-8.10754

>  <SCORE.INTRA.DIHEDRAL>
-8.61165

>  <SCORE.INTRA.DIHEDRAL.0>
23.4151

>  <SCORE.INTRA.POLAR>
0

>  <SCORE.INTRA.POLAR.0>
0

>  <SCORE.INTRA.REPUL>
0

>  <SCORE.INTRA.REPUL.0>
0

>  <SCORE.INTRA.SOLV>
0.681692

>  <SCORE.INTRA.SOLV.lig_0>
-17.3568

>  <SCORE.INTRA.VDW>
-4.14256

>  <SCORE.INTRA.VDW.0>
1.0768

>  <SCORE.INTRA.norm>
-0.352502

>  <SCORE.RESTR>
0

>  <SCORE.RESTR.CAVITY>
0

>  <SCORE.RESTR.norm>
0

>  <SCORE.SYSTEM>
0

>  <SCORE.SYSTEM.CONST>
0

>  <SCORE.SYSTEM.DIHEDRAL>
0

>  <SCORE.SYSTEM.SOLV>
0

>  <SCORE.SYSTEM.norm>
0

>  <SCORE.heavy>
23

>  <SCORE.norm>
-0.88193

>  <RMSD>
8.819

$$$$
1uui_lig
 OpenBabel11021811413D
libRbt.so/2013.1/901 2013/11/27
 23 24  0  0  0  0  0  0  0  0999 V2000
  -14.9949    1.4838    5.2540 C   0  0  0  0  0  0  0  0  0  0  0  0
  -17.3716    1.6599    6.9188 O   0  0  0  0  0  0  0  0  0  0  0  0
  -13.0512    5.2008    8.0590 O   0  0  0  0  0  0  0  0  0  0  0  0
  -18.5319    2.4064    6.5311 C   0  0  0  0  0  0  0  0  0  0  0  0
  -13.3808    6.5186    7.6130 C   0  0  0  0  0  0  0  0  0  0  0  0
  -14.6839    0.1189    5.7923 N   0  0  0  0  0  0  0  0  0  0  0  0
  -19.6917    1.4387    6.2912 C   0  0  0  0  0  0  0  0  0  0  0  0
  -13.2253   -0.0447    6.0378 C   0  0  0  0  0  0  0  0  0  0  0  0
  -15.1513   -0.9395    4.8586 C   0  0  0  0  0  0  0  0  0  0  0  0
  -19.3193    0.4369    5.1935 C   0  0  0  0  0  0  0  0  0  0  0  0
  -12.4034    0.1154    4.7475 C   0  0  0  0  0  0  0  0  0  0  0  0
  -14.4851   -0.8126    3.4780 C   0  0  0  0  0  0  0  0  0  0  0  0
  -20.4225   -0.5335    5.0156 N   0  0  0  0  0  0  0  0  0  0  0  0
  -13.2596    0.0445    3.5222 N   0  0  0  0  0  0  0  0  0  0  0  0
  -12.7703    0.5894    2.3204 C   0  0  0  0  0  0  0  0  0  0  0  0
  -13.4798    1.5379    1.6452 N   0  0  0  0  0  0  0  0  0  0  0  0
  -11.6455    0.0870    1.7355 N   0  0  0  0  0  0  0  0  0  0  0  0
  -16.2878    2.5500    7.2006 C   0  0  0  0  0  0  0  0  0  0  0  0
  -15.1046    2.5005    6.4139 C   0  0  0  0  0  0  0  0  0  0  0  0
  -14.0276    3.3846    6.7008 C   0  0  0  0  0  0  0  0  0  0  0  0
  -14.1358    4.3139    7.7709 C   0  0  0  0  0  0  0  0  0  0  0  0
  -15.3191    4.3617    8.5537 C   0  0  0  0  0  0  0  0  0  0  0  0
  -16.3941    3.4791    8.2691 C   0  0  0  0  0  0  0  0  0  0  0  0
  2  4  1  0  0  0  0
  3  5  1  0  0  0  0
  4  7  1  0  0  0  0
  6  1  1  0  0  0  0
  7 10  1  0  0  0  0
  8  6  1  0  0  0  0
  8 11  1  0  0  0  0
  9  6  1  0  0  0  0
 10 13  1  0  0  0  0
 11 14  1  0  0  0  0
 12  9  1  0  0  0  0
 14 12  1  0  0  0  0
 14 15  1  0  0  0  0
 15 16  1  0  0  0  0
 15 17  1  0  0  0  0
 18  2  1  0  0  0  0
 18 23  2  0  0  0  0
 19  1  1  0  0  0  0
 19 18  1  0  0  0  0
 20 19  2  0  0  0  0
 21  3  1  0  0  0  0
 21 20  1  0  0  0  0
 22 21  2  0  0  0  0
 22 23  1  0  0  0  0
M  END
>  <CHROM.1>
-177.69359365,-59.16510807,-83.00719800,177.30355193,61.30072120,-124.25209603
31.52701976,80.57623451,-117.12359912,-78.29995405,105.52759133,-15.19951256
1.69065293,5.58542167,0.94830455,-0.27831639,-2.38852261

>  <Name>
1uui_lig

>  <RI>
0

>  <Rbt.Current_Directory>
/home/itssahil/PROJECTS/Mol_Feturizer/New_Systems/rnas/1uui

>  <Rbt.Executable>
rbdock ($Id: //depot/dev/client3/rdock/2013.1/src/exe/rbdock.cxx#4 $)

>  <Rbt.Library>
libRbt.so (2013.1, Build901 2013/11/27)

>  <Rbt.Parameter_File>
/export/apps/rDock/src/rDock_2013.1_src/data/scripts/dock_solv.prm

>  <Rbt.Receptor>
prm/pocket_docking_8.prm

>  <SCORE>
-21.246

>  <SCORE.INTER>
-13.6456

>  <SCORE.INTER.CONST>
1

>  <SCORE.INTER.POLAR>
-1.91232

>  <SCORE.INTER.ROT>
10

>  <SCORE.INTER.SOLV>
3.44483

>  <SCORE.INTER.VDW>
-14.1376

>  <SCORE.INTER.norm>
-0.593286

>  <SCORE.INTRA>
-7.60048

>  <SCORE.INTRA.DIHEDRAL>
-9.53548

>  <SCORE.INTRA.DIHEDRAL.0>
23.4151

>  <SCORE.INTRA.POLAR>
0

>  <SCORE.INTRA.POLAR.0>
0

>  <SCORE.INTRA.REPUL>
0

>  <SCORE.INTRA.REPUL.0>
0

>  <SCORE.INTRA.SOLV>
0.129189

>  <SCORE.INTRA.SOLV.lig_0>
-17.3568

>  <SCORE.INTRA.VDW>
-2.89733

>  <SCORE.INTRA.VDW.0>
1.0768

>  <SCORE.INTRA.norm>
-0.330455

>  <SCORE.RESTR>
0

>  <SCORE.RESTR.CAVITY>
0

>  <SCORE.RESTR.norm>
0

>  <SCORE.SYSTEM>
0

>  <SCORE.SYSTEM.CONST>
0

>  <SCORE.SYSTEM.DIHEDRAL>
0

>  <SCORE.SYSTEM.SOLV>
0

>  <SCORE.SYSTEM.norm>
0

>  <SCORE.heavy>
23

>  <SCORE.norm>
-0.923741

>  <RMSD>
8.843

$$$$
1uui_lig
 OpenBabel11021811413D
libRbt.so/2013.1/901 2013/11/27
 23 24  0  0  0  0  0  0  0  0999 V2000
   -3.0903    0.3959    1.7188 C   0  0  0  0  0  0  0  0  0  0  0  0
   -1.8604   -2.0959    0.8648 O   0  0  0  0  0  0  0  0  0  0  0  0
    0.5036    0.6769    5.2496 O   0  0  0  0  0  0  0  0  0  0  0  0
   -1.4875   -1.4674   -0.3681 C   0  0  0  0  0  0  0  0  0  0  0  0
    1.8541    1.0154    4.9249 C   0  0  0  0  0  0  0  0  0  0  0  0
   -4.0124    1.0089    2.7304 N   0  0  0  0  0  0  0  0  0  0  0  0
   -2.1034   -2.2454   -1.5320 C   0  0  0  0  0  0  0  0  0  0  0  0
   -4.3044    0.0600    3.8391 C   0  0  0  0  0  0  0  0  0  0  0  0
   -5.2870    1.4378    2.0963 C   0  0  0  0  0  0  0  0  0  0  0  0
   -1.8217   -1.5219   -2.8527 C   0  0  0  0  0  0  0  0  0  0  0  0
   -4.9945   -1.2187    3.3348 C   0  0  0  0  0  0  0  0  0  0  0  0
   -6.0214    0.2549    1.4426 C   0  0  0  0  0  0  0  0  0  0  0  0
   -0.3956   -1.6876   -3.2123 N   0  0  0  0  0  0  0  0  0  0  0  0
   -5.5200   -1.0632    1.9422 N   0  0  0  0  0  0  0  0  0  0  0  0
   -5.7790   -2.2189    1.1821 C   0  0  0  0  0  0  0  0  0  0  0  0
   -7.0550   -2.6662    1.0064 N   0  0  0  0  0  0  0  0  0  0  0  0
   -4.7552   -2.9910    0.7183 N   0  0  0  0  0  0  0  0  0  0  0  0
   -1.2713   -1.4004    1.9672 C   0  0  0  0  0  0  0  0  0  0  0  0
   -1.8371   -0.1774    2.4202 C   0  0  0  0  0  0  0  0  0  0  0  0
   -1.2451    0.5131    3.5141 C   0  0  0  0  0  0  0  0  0  0  0  0
   -0.0914   -0.0197    4.1511 C   0  0  0  0  0  0  0  0  0  0  0  0
    0.4705   -1.2418    3.6972 C   0  0  0  0  0  0  0  0  0  0  0  0
   -0.1188   -1.9311    2.6049 C   0  0  0  0  0  0  0  0  0  0  0  0
  2  4  1  0  0  0  0
  3  5  1  0  0  0  0
  4  7  1  0  0  0  0
  6  1  1  0  0  0  0
  7 10  1  0  0  0  0
  8  6  1  0  0  0  0
  8 11  1  0  0  0  0
  9  6  1  0  0  0  0
 10 13  1  0  0  0  0
 11 14  1  0  0  0  0
 12  9  1  0  0  0  0
 14 12  1  0  0  0  0
 14 15  1  0  0  0  0
 15 16  1  0  0  0  0
 15 17  1  0  0  0  0
 18  2  1  0  0  0  0
 18 23  2  0  0  0  0
 19  1  1  0  0  0  0
 19 18  1  0  0  0  0
 20 19  2  0  0  0  0
 21  3  1  0  0  0  0
 21 20  1  0  0  0  0
 22 21  2  0  0  0  0
 22 23  1  0  0  0  0
M  END
>  <CHROM.1>
178.78242580,175.01850110,-51.90216762,72.91556489,55.29421882,102.88885749
8.99679579,-9.04744789,77.87576235,141.79935642,-120.09186867,-2.64155999
-0.82896730,1.73956356,2.45188480,-0.04578438,-1.96449776

>  <Name>
1uui_lig

>  <RI>
0

>  <Rbt.Current_Directory>
/home/itssahil/PROJECTS/Mol_Feturizer/New_Systems/rnas/1uui

>  <Rbt.Executable>
rbdock ($Id: //depot/dev/client3/rdock/2013.1/src/exe/rbdock.cxx#4 $)

>  <Rbt.Library>
libRbt.so (2013.1, Build901 2013/11/27)

>  <Rbt.Parameter_File>
/export/apps/rDock/src/rDock_2013.1_src/data/scripts/dock_solv.prm

>  <Rbt.Receptor>
prm/pocket_docking_8.prm

>  <SCORE>
-22.1737

>  <SCORE.INTER>
-11.9416

>  <SCORE.INTER.CONST>
1

>  <SCORE.INTER.POLAR>
-1.95299

>  <SCORE.INTER.ROT>
10

>  <SCORE.INTER.SOLV>
5.32212

>  <SCORE.INTER.VDW>
-13.4918

>  <SCORE.INTER.norm>
-0.519198

>  <SCORE.INTRA>
-10.2321

>  <SCORE.INTRA.DIHEDRAL>
-9.96437

>  <SCORE.INTRA.DIHEDRAL.0>
23.4151

>  <SCORE.INTRA.POLAR>
-1

>  <SCORE.INTRA.POLAR.0>
0

>  <SCORE.INTRA.REPUL>
0.0136547

>  <SCORE.INTRA.REPUL.0>
0

>  <SCORE.INTRA.SOLV>
0.982832

>  <SCORE.INTRA.SOLV.lig_0>
-17.3568

>  <SCORE.INTRA.VDW>
-2.40961

>  <SCORE.INTRA.VDW.0>
1.0768

>  <SCORE.INTRA.norm>
-0.444874

>  <SCORE.RESTR>
0

>  <SCORE.RESTR.CAVITY>
0

>  <SCORE.RESTR.norm>
0

>  <SCORE.SYSTEM>
0

>  <SCORE.SYSTEM.CONST>
0

>  <SCORE.SYSTEM.DIHEDRAL>
0

>  <SCORE.SYSTEM.SOLV>
0

>  <SCORE.SYSTEM.norm>
0

>  <SCORE.heavy>
23

>  <SCORE.norm>
-0.964073

>  <RMSD>
9.582

$$$$
1uui_lig
 OpenBabel11021811413D
libRbt.so/2013.1/901 2013/11/27
 23 24  0  0  0  0  0  0  0  0999 V2000
   -3.0861   -0.4051    2.2512 C   0  0  0  0  0  0  0  0  0  0  0  0
   -2.7414   -3.1825    1.4648 O   0  0  0  0  0  0  0  0  0  0  0  0
    1.5539   -0.6405    4.2202 O   0  0  0  0  0  0  0  0  0  0  0  0
   -2.2803   -3.6883    0.2056 C   0  0  0  0  0  0  0  0  0  0  0  0
    1.9476    0.5343    3.5067 C   0  0  0  0  0  0  0  0  0  0  0  0
   -4.0112   -0.4486    3.4309 N   0  0  0  0  0  0  0  0  0  0  0  0
   -3.3732   -4.5615   -0.4127 C   0  0  0  0  0  0  0  0  0  0  0  0
   -4.8572   -1.6728    3.4081 C   0  0  0  0  0  0  0  0  0  0  0  0
   -4.8825    0.7555    3.4674 C   0  0  0  0  0  0  0  0  0  0  0  0
   -2.8595   -5.2078   -1.7032 C   0  0  0  0  0  0  0  0  0  0  0  0
   -5.7440   -1.7357    2.1530 C   0  0  0  0  0  0  0  0  0  0  0  0
   -5.7416    0.8729    2.1969 C   0  0  0  0  0  0  0  0  0  0  0  0
   -1.8854   -6.2709   -1.3693 N   0  0  0  0  0  0  0  0  0  0  0  0
   -5.8124   -0.4188    1.4453 N   0  0  0  0  0  0  0  0  0  0  0  0
   -6.1998   -0.3951    0.0926 C   0  0  0  0  0  0  0  0  0  0  0  0
   -5.3747    0.1255   -0.8599 N   0  0  0  0  0  0  0  0  0  0  0  0
   -7.4584   -0.7671   -0.2776 N   0  0  0  0  0  0  0  0  0  0  0  0
   -1.6666   -2.5438    2.1597 C   0  0  0  0  0  0  0  0  0  0  0  0
   -1.7887   -1.1862    2.5638 C   0  0  0  0  0  0  0  0  0  0  0  0
   -0.7153   -0.5538    3.2506 C   0  0  0  0  0  0  0  0  0  0  0  0
    0.4749   -1.2785    3.5311 C   0  0  0  0  0  0  0  0  0  0  0  0
    0.5933   -2.6344    3.1274 C   0  0  0  0  0  0  0  0  0  0  0  0
   -0.4769   -3.2662    2.4410 C   0  0  0  0  0  0  0  0  0  0  0  0
  2  4  1  0  0  0  0
  3  5  1  0  0  0  0
  4  7  1  0  0  0  0
  6  1  1  0  0  0  0
  7 10  1  0  0  0  0
  8  6  1  0  0  0  0
  8 11  1  0  0  0  0
  9  6  1  0  0  0  0
 10 13  1  0  0  0  0
 11 14  1  0  0  0  0
 12  9  1  0  0  0  0
 14 12  1  0  0  0  0
 14 15  1  0  0  0  0
 15 16  1  0  0  0  0
 15 17  1  0  0  0  0
 18  2  1  0  0  0  0
 18 23  2  0  0  0  0
 19  1  1  0  0  0  0
 19 18  1  0  0  0  0
 20 19  2  0  0  0  0
 21  3  1  0  0  0  0
 21 20  1  0  0  0  0
 22 21  2  0  0  0  0
 22 23  1  0  0  0  0
M  END
>  <CHROM.1>
170.73315195,-175.28507002,-86.06152813,72.56165705,179.61069847,-121.39560431
-158.23741426,20.79291041,122.99402857,95.49097634,-56.26997768,-2.92789341
-1.69673649,1.69435259,2.95089477,0.34824768,-2.47622225

>  <Name>
1uui_lig

>  <RI>
0

>  <Rbt.Current_Directory>
/home/itssahil/PROJECTS/Mol_Feturizer/New_Systems/rnas/1uui

>  <Rbt.Executable>
rbdock ($Id: //depot/dev/client3/rdock/2013.1/src/exe/rbdock.cxx#4 $)

>  <Rbt.Library>
libRbt.so (2013.1, Build901 2013/11/27)

>  <Rbt.Parameter_File>
/export/apps/rDock/src/rDock_2013.1_src/data/scripts/dock_solv.prm

>  <Rbt.Receptor>
prm/pocket_docking_8.prm

>  <SCORE>
-25.0408

>  <SCORE.INTER>
-18.3835

>  <SCORE.INTER.CONST>
1

>  <SCORE.INTER.POLAR>
-1.93547

>  <SCORE.INTER.ROT>
10

>  <SCORE.INTER.SOLV>
6.19724

>  <SCORE.INTER.VDW>
-18.1365

>  <SCORE.INTER.norm>
-0.799281

>  <SCORE.INTRA>
-6.65817

>  <SCORE.INTRA.DIHEDRAL>
-9.8305

>  <SCORE.INTRA.DIHEDRAL.0>
23.4151

>  <SCORE.INTRA.POLAR>
0

>  <SCORE.INTRA.POLAR.0>
0

>  <SCORE.INTRA.REPUL>
0.0513623

>  <SCORE.INTRA.REPUL.0>
0

>  <SCORE.INTRA.SOLV>
0.239664

>  <SCORE.INTRA.SOLV.lig_0>
-17.3568

>  <SCORE.INTRA.VDW>
-2.11956

>  <SCORE.INTRA.VDW.0>
1.0768

>  <SCORE.INTRA.norm>
-0.289485

>  <SCORE.RESTR>
0.000847046

>  <SCORE.RESTR.CAVITY>
0.000847046

>  <SCORE.RESTR.norm>
3.68281e-05

>  <SCORE.SYSTEM>
0

>  <SCORE.SYSTEM.CONST>
0

>  <SCORE.SYSTEM.DIHEDRAL>
0

>  <SCORE.SYSTEM.SOLV>
0

>  <SCORE.SYSTEM.norm>
0

>  <SCORE.heavy>
23

>  <SCORE.norm>
-1.08873

>  <RMSD>
9.614

$$$$
1uui_lig
 OpenBabel11021811413D
libRbt.so/2013.1/901 2013/11/27
 23 24  0  0  0  0  0  0  0  0999 V2000
   -1.0311   -0.7741    1.8515 C   0  0  0  0  0  0  0  0  0  0  0  0
   -1.5027    1.7001    3.3031 O   0  0  0  0  0  0  0  0  0  0  0  0
    0.1654    2.0780   -2.1354 O   0  0  0  0  0  0  0  0  0  0  0  0
   -0.3625    1.5140    4.1512 C   0  0  0  0  0  0  0  0  0  0  0  0
   -0.9749    2.2795   -2.9740 C   0  0  0  0  0  0  0  0  0  0  0  0
   -0.5816   -1.8591    0.9185 N   0  0  0  0  0  0  0  0  0  0  0  0
   -0.4587    2.4761    5.3362 C   0  0  0  0  0  0  0  0  0  0  0  0
   -1.5246   -2.0145   -0.2222 C   0  0  0  0  0  0  0  0  0  0  0  0
   -0.4518   -3.1555    1.6347 C   0  0  0  0  0  0  0  0  0  0  0  0
   -0.6391    1.6878    6.6374 C   0  0  0  0  0  0  0  0  0  0  0  0
   -2.9379   -2.3984    0.2482 C   0  0  0  0  0  0  0  0  0  0  0  0
   -1.7866   -3.5935    2.2613 C   0  0  0  0  0  0  0  0  0  0  0  0
   -1.9806    1.0628    6.6542 N   0  0  0  0  0  0  0  0  0  0  0  0
   -2.9510   -2.8630    1.6707 N   0  0  0  0  0  0  0  0  0  0  0  0
   -4.1652   -2.8359    2.3818 C   0  0  0  0  0  0  0  0  0  0  0  0
   -5.3262   -3.2434    1.7946 N   0  0  0  0  0  0  0  0  0  0  0  0
   -4.2319   -2.2774    3.6241 N   0  0  0  0  0  0  0  0  0  0  0  0
   -1.0878    1.7924    1.9373 C   0  0  0  0  0  0  0  0  0  0  0  0
   -0.8444    0.6096    1.1870 C   0  0  0  0  0  0  0  0  0  0  0  0
   -0.4276    0.7064   -0.1698 C   0  0  0  0  0  0  0  0  0  0  0  0
   -0.2555    1.9826   -0.7717 C   0  0  0  0  0  0  0  0  0  0  0  0
   -0.5006    3.1617   -0.0202 C   0  0  0  0  0  0  0  0  0  0  0  0
   -0.9156    3.0663    1.3342 C   0  0  0  0  0  0  0  0  0  0  0  0
  2  4  1  0  0  0  0
  3  5  1  0  0  0  0
  4  7  1  0  0  0  0
  6  1  1  0  0  0  0
  7 10  1  0  0  0  0
  8  6  1  0  0  0  0
  8 11  1  0  0  0  0
  9  6  1  0  0  0  0
 10 13  1  0  0  0  0
 11 14  1  0  0  0  0
 12  9  1  0  0  0  0
 14 12  1  0  0  0  0
 14 15  1  0  0  0  0
 15 16  1  0  0  0  0
 15 17  1  0  0  0  0
 18  2  1  0  0  0  0
 18 23  2  0  0  0  0
 19  1  1  0  0  0  0
 19 18  1  0  0  0  0
 20 19  2  0  0  0  0
 21  3  1  0  0  0  0
 21 20  1  0  0  0  0
 22 21  2  0  0  0  0
 22 23  1  0  0  0  0
M  END
>  <CHROM.1>
132.99697350,114.19144717,-71.05956931,-69.24792309,70.27274937,42.46218958
-160.51148108,-56.58719673,82.71438000,-174.10221538,97.85786783,-1.55888196
-0.07831017,1.82133028,2.75737704,1.09094404,1.32161249

>  <Name>
1uui_lig

>  <RI>
0

>  <Rbt.Current_Directory>
/home/itssahil/PROJECTS/Mol_Feturizer/New_Systems/rnas/1uui

>  <Rbt.Executable>
rbdock ($Id: //depot/dev/client3/rdock/2013.1/src/exe/rbdock.cxx#4 $)

>  <Rbt.Library>
libRbt.so (2013.1, Build901 2013/11/27)

>  <Rbt.Parameter_File>
/export/apps/rDock/src/rDock_2013.1_src/data/scripts/dock_solv.prm

>  <Rbt.Receptor>
prm/pocket_docking_8.prm

>  <SCORE>
-19.3815

>  <SCORE.INTER>
-19.5213

>  <SCORE.INTER.CONST>
1

>  <SCORE.INTER.POLAR>
-4.00554

>  <SCORE.INTER.ROT>
10

>  <SCORE.INTER.SOLV>
7.62551

>  <SCORE.INTER.VDW>
-12.4709

>  <SCORE.INTER.norm>
-0.848753

>  <SCORE.INTRA>
0.13979

>  <SCORE.INTRA.DIHEDRAL>
2.9925

>  <SCORE.INTRA.DIHEDRAL.0>
23.4151

>  <SCORE.INTRA.POLAR>
0

>  <SCORE.INTRA.POLAR.0>
0

>  <SCORE.INTRA.REPUL>
0

>  <SCORE.INTRA.REPUL.0>
0

>  <SCORE.INTRA.SOLV>
0.258403

>  <SCORE.INTRA.SOLV.lig_0>
-17.3568

>  <SCORE.INTRA.VDW>
-1.48566

>  <SCORE.INTRA.VDW.0>
1.0768

>  <SCORE.INTRA.norm>
0.00607782

>  <SCORE.RESTR>
0

>  <SCORE.RESTR.CAVITY>
0

>  <SCORE.RESTR.norm>
0

>  <SCORE.SYSTEM>
0

>  <SCORE.SYSTEM.CONST>
0

>  <SCORE.SYSTEM.DIHEDRAL>
0

>  <SCORE.SYSTEM.SOLV>
0

>  <SCORE.SYSTEM.norm>
0

>  <SCORE.heavy>
23

>  <SCORE.norm>
-0.842675

>  <RMSD>
10.232

$$$$
1uui_lig
 OpenBabel11021811413D
libRbt.so/2013.1/901 2013/11/27
 23 24  0  0  0  0  0  0  0  0999 V2000
  -19.5024   -5.2076    6.1603 C   0  0  0  0  0  0  0  0  0  0  0  0
  -17.9603   -5.4966    3.7128 O   0  0  0  0  0  0  0  0  0  0  0  0
  -17.8552   -9.7988    7.4523 O   0  0  0  0  0  0  0  0  0  0  0  0
  -16.7053   -4.8047    3.7314 C   0  0  0  0  0  0  0  0  0  0  0  0
  -16.8041   -9.5816    8.3967 C   0  0  0  0  0  0  0  0  0  0  0  0
  -20.9676   -5.5022    6.0341 N   0  0  0  0  0  0  0  0  0  0  0  0
  -16.6879   -3.7707    2.6045 C   0  0  0  0  0  0  0  0  0  0  0  0
  -21.7713   -4.2497    6.0307 C   0  0  0  0  0  0  0  0  0  0  0  0
  -21.4290   -6.3845    7.1382 C   0  0  0  0  0  0  0  0  0  0  0  0
  -16.2305   -4.4275    1.2982 C   0  0  0  0  0  0  0  0  0  0  0  0
  -21.5955   -3.4501    7.3329 C   0  0  0  0  0  0  0  0  0  0  0  0
  -21.1930   -5.7407    8.5151 C   0  0  0  0  0  0  0  0  0  0  0  0
  -16.1078   -3.3964    0.2436 N   0  0  0  0  0  0  0  0  0  0  0  0
  -20.9585   -4.2665    8.4133 N   0  0  0  0  0  0  0  0  0  0  0  0
  -20.3393   -3.6032    9.4889 C   0  0  0  0  0  0  0  0  0  0  0  0
  -20.4032   -2.2458    9.6007 N   0  0  0  0  0  0  0  0  0  0  0  0
  -19.5505   -4.2863   10.3668 N   0  0  0  0  0  0  0  0  0  0  0  0
  -17.9385   -6.5764    4.6508 C   0  0  0  0  0  0  0  0  0  0  0  0
  -18.6766   -6.4805    5.8622 C   0  0  0  0  0  0  0  0  0  0  0  0
  -18.6483   -7.5551    6.7940 C   0  0  0  0  0  0  0  0  0  0  0  0
  -17.8840   -8.7202    6.5133 C   0  0  0  0  0  0  0  0  0  0  0  0
  -17.1491   -8.8134    5.3023 C   0  0  0  0  0  0  0  0  0  0  0  0
  -17.1757   -7.7412    4.3720 C   0  0  0  0  0  0  0  0  0  0  0  0
  2  4  1  0  0  0  0
  3  5  1  0  0  0  0
  4  7  1  0  0  0  0
  6  1  1  0  0  0  0
  7 10  1  0  0  0  0
  8  6  1  0  0  0  0
  8 11  1  0  0  0  0
  9  6  1  0  0  0  0
 10 13  1  0  0  0  0
 11 14  1  0  0  0  0
 12  9  1  0  0  0  0
 14 12  1  0  0  0  0
 14 15  1  0  0  0  0
 15 16  1  0  0  0  0
 15 17  1  0  0  0  0
 18  2  1  0  0  0  0
 18 23  2  0  0  0  0
 19  1  1  0  0  0  0
 19 18  1  0  0  0  0
 20 19  2  0  0  0  0
 21  3  1  0  0  0  0
 21 20  1  0  0  0  0
 22 21  2  0  0  0  0
 22 23  1  0  0  0  0
M  END
>  <CHROM.1>
173.00802582,-85.59459340,-168.03808995,-175.26464688,63.79557920,4.88071993
-108.77543163,14.28990082,107.13451724,107.96426852,-88.15034259,-18.84408126
-5.68072690,6.08202527,2.64408223,-0.93382031,2.47610526

>  <Name>
1uui_lig

>  <RI>
0

>  <Rbt.Current_Directory>
/home/itssahil/PROJECTS/Mol_Feturizer/New_Systems/rnas/1uui

>  <Rbt.Executable>
rbdock ($Id: //depot/dev/client3/rdock/2013.1/src/exe/rbdock.cxx#4 $)

>  <Rbt.Library>
libRbt.so (2013.1, Build901 2013/11/27)

>  <Rbt.Parameter_File>
/export/apps/rDock/src/rDock_2013.1_src/data/scripts/dock_solv.prm

>  <Rbt.Receptor>
prm/blind_docking_40.prm

>  <SCORE>
-23.7051

>  <SCORE.INTER>
-18.4636

>  <SCORE.INTER.CONST>
1

>  <SCORE.INTER.POLAR>
-2.37824

>  <SCORE.INTER.ROT>
10

>  <SCORE.INTER.SOLV>
7.66049

>  <SCORE.INTER.VDW>
-17.2018

>  <SCORE.INTER.norm>
-0.802764

>  <SCORE.INTRA>
-5.28029

>  <SCORE.INTRA.DIHEDRAL>
-7.20174

>  <SCORE.INTRA.DIHEDRAL.0>
23.4151

>  <SCORE.INTRA.POLAR>
0

>  <SCORE.INTRA.POLAR.0>
0

>  <SCORE.INTRA.REPUL>
0

>  <SCORE.INTRA.REPUL.0>
0

>  <SCORE.INTRA.SOLV>
0.0570668

>  <SCORE.INTRA.SOLV.lig_0>
-17.3568

>  <SCORE.INTRA.VDW>
-1.70796

>  <SCORE.INTRA.VDW.0>
1.0768

>  <SCORE.INTRA.norm>
-0.229578

>  <SCORE.RESTR>
0.0387983

>  <SCORE.RESTR.CAVITY>
0.0387983

>  <SCORE.RESTR.norm>
0.00168688

>  <SCORE.SYSTEM>
0

>  <SCORE.SYSTEM.CONST>
0

>  <SCORE.SYSTEM.DIHEDRAL>
0

>  <SCORE.SYSTEM.SOLV>
0

>  <SCORE.SYSTEM.norm>
0

>  <SCORE.heavy>
23

>  <SCORE.norm>
-1.03065

>  <RMSD>
11.827

$$$$
1uui_lig
 OpenBabel11021811413D
libRbt.so/2013.1/901 2013/11/27
 23 24  0  0  0  0  0  0  0  0999 V2000
  -20.8760   -4.1641    6.6125 C   0  0  0  0  0  0  0  0  0  0  0  0
  -19.4017   -6.6696    6.6300 O   0  0  0  0  0  0  0  0  0  0  0  0
  -17.3548   -2.3953    3.4606 O   0  0  0  0  0  0  0  0  0  0  0  0
  -20.1804   -7.5525    5.8126 C   0  0  0  0  0  0  0  0  0  0  0  0
  -16.1365   -1.9144    4.0338 C   0  0  0  0  0  0  0  0  0  0  0  0
  -20.7902   -2.9187    7.4439 N   0  0  0  0  0  0  0  0  0  0  0  0
  -19.4067   -8.8557    5.6069 C   0  0  0  0  0  0  0  0  0  0  0  0
  -19.8836   -3.1091    8.6086 C   0  0  0  0  0  0  0  0  0  0  0  0
  -22.1355   -2.5073    7.9248 C   0  0  0  0  0  0  0  0  0  0  0  0
  -18.0852   -8.5719    4.8858 C   0  0  0  0  0  0  0  0  0  0  0  0
  -20.3753   -4.2272    9.5434 C   0  0  0  0  0  0  0  0  0  0  0  0
  -22.7914   -3.6036    8.7816 C   0  0  0  0  0  0  0  0  0  0  0  0
  -17.5327   -9.8367    4.3513 N   0  0  0  0  0  0  0  0  0  0  0  0
  -21.7953   -4.6095    9.2656 N   0  0  0  0  0  0  0  0  0  0  0  0
  -22.2579   -5.8644    9.7035 C   0  0  0  0  0  0  0  0  0  0  0  0
  -21.3957   -6.7808   10.2287 N   0  0  0  0  0  0  0  0  0  0  0  0
  -23.5503   -6.2432    9.4897 N   0  0  0  0  0  0  0  0  0  0  0  0
  -18.8879   -5.5945    5.8386 C   0  0  0  0  0  0  0  0  0  0  0  0
  -19.5749   -4.3504    5.7980 C   0  0  0  0  0  0  0  0  0  0  0  0
  -19.0626   -3.2855    5.0059 C   0  0  0  0  0  0  0  0  0  0  0  0
  -17.8675   -3.4665    4.2580 C   0  0  0  0  0  0  0  0  0  0  0  0
  -17.1832   -4.7096    4.3015 C   0  0  0  0  0  0  0  0  0  0  0  0
  -17.6941   -5.7734    5.0908 C   0  0  0  0  0  0  0  0  0  0  0  0
  2  4  1  0  0  0  0
  3  5  1  0  0  0  0
  4  7  1  0  0  0  0
  6  1  1  0  0  0  0
  7 10  1  0  0  0  0
  8  6  1  0  0  0  0
  8 11  1  0  0  0  0
  9  6  1  0  0  0  0
 10 13  1  0  0  0  0
 11 14  1  0  0  0  0
 12  9  1  0  0  0  0
 14 12  1  0  0  0  0
 14 15  1  0  0  0  0
 15 16  1  0  0  0  0
 15 17  1  0  0  0  0
 18  2  1  0  0  0  0
 18 23  2  0  0  0  0
 19  1  1  0  0  0  0
 19 18  1  0  0  0  0
 20 19  2  0  0  0  0
 21  3  1  0  0  0  0
 21 20  1  0  0  0  0
 22 21  2  0  0  0  0
 22 23  1  0  0  0  0
M  END
>  <CHROM.1>
107.86399279,-61.33342835,-74.05645959,-163.97466039,-65.50427792,-7.69553242
-44.79287073,-105.96508617,96.28169237,128.95167324,111.24855376,-19.76216902
-5.14226907,6.66163115,-3.07416741,-0.82335753,-3.13501026

>  <Name>
1uui_lig

>  <RI>
0

>  <Rbt.Current_Directory>
/home/itssahil/PROJECTS/Mol_Feturizer/New_Systems/rnas/1uui

>  <Rbt.Executable>
rbdock ($Id: //depot/dev/client3/rdock/2013.1/src/exe/rbdock.cxx#4 $)

>  <Rbt.Library>
libRbt.so (2013.1, Build901 2013/11/27)

>  <Rbt.Parameter_File>
/export/apps/rDock/src/rDock_2013.1_src/data/scripts/dock_solv.prm

>  <Rbt.Receptor>
prm/blind_docking_40.prm

>  <SCORE>
-23.1802

>  <SCORE.INTER>
-21.7172

>  <SCORE.INTER.CONST>
1

>  <SCORE.INTER.POLAR>
-3.30091

>  <SCORE.INTER.ROT>
10

>  <SCORE.INTER.SOLV>
5.88198

>  <SCORE.INTER.VDW>
-15.7025

>  <SCORE.INTER.norm>
-0.944228

>  <SCORE.INTRA>
-1.46764

>  <SCORE.INTRA.DIHEDRAL>
-2.14511

>  <SCORE.INTRA.DIHEDRAL.0>
23.4151

>  <SCORE.INTRA.POLAR>
0

>  <SCORE.INTRA.POLAR.0>
0

>  <SCORE.INTRA.REPUL>
0

>  <SCORE.INTRA.REPUL.0>
0

>  <SCORE.INTRA.SOLV>
0.274206

>  <SCORE.INTRA.SOLV.lig_0>
-17.3568

>  <SCORE.INTRA.VDW>
-0.532184

>  <SCORE.INTRA.VDW.0>
1.0768

>  <SCORE.INTRA.norm>
-0.0638103

>  <SCORE.RESTR>
0.00469813

>  <SCORE.RESTR.CAVITY>
0.00469813

>  <SCORE.RESTR.norm>
0.000204267

>  <SCORE.SYSTEM>
0

>  <SCORE.SYSTEM.CONST>
0

>  <SCORE.SYSTEM.DIHEDRAL>
0

>  <SCORE.SYSTEM.SOLV>
0

>  <SCORE.SYSTEM.norm>
0

>  <SCORE.heavy>
23

>  <SCORE.norm>
-1.00783

>  <RMSD>
11.917

$$$$
1uui_lig
 OpenBabel11021811413D
libRbt.so/2013.1/901 2013/11/27
 23 24  0  0  0  0  0  0  0  0999 V2000
  -20.1364   -4.4033    6.4788 C   0  0  0  0  0  0  0  0  0  0  0  0
  -17.9197   -4.8574    4.6536 O   0  0  0  0  0  0  0  0  0  0  0  0
  -22.0062   -8.8239    4.9217 O   0  0  0  0  0  0  0  0  0  0  0  0
  -17.6855   -4.4832    3.2901 C   0  0  0  0  0  0  0  0  0  0  0  0
  -21.4218  -10.0864    5.2510 C   0  0  0  0  0  0  0  0  0  0  0  0
  -19.5285   -4.6682    7.8241 N   0  0  0  0  0  0  0  0  0  0  0  0
  -16.3885   -3.6768    3.2089 C   0  0  0  0  0  0  0  0  0  0  0  0
  -20.2680   -5.7367    8.5494 C   0  0  0  0  0  0  0  0  0  0  0  0
  -19.5070   -3.4321    8.6500 C   0  0  0  0  0  0  0  0  0  0  0  0
  -16.0752   -3.3344    1.7489 C   0  0  0  0  0  0  0  0  0  0  0  0
  -21.7360   -5.3518    8.7997 C   0  0  0  0  0  0  0  0  0  0  0  0
  -20.9230   -2.8738    8.8725 C   0  0  0  0  0  0  0  0  0  0  0  0
  -14.7526   -2.6750    1.6690 N   0  0  0  0  0  0  0  0  0  0  0  0
  -21.9803   -3.8915    8.5813 N   0  0  0  0  0  0  0  0  0  0  0  0
  -23.2956   -3.4523    8.3415 C   0  0  0  0  0  0  0  0  0  0  0  0
  -23.5306   -2.2639    7.7159 N   0  0  0  0  0  0  0  0  0  0  0  0
  -24.3611   -4.1371    8.8469 N   0  0  0  0  0  0  0  0  0  0  0  0
  -18.9482   -5.8494    4.7197 C   0  0  0  0  0  0  0  0  0  0  0  0
  -20.0518   -5.6716    5.5982 C   0  0  0  0  0  0  0  0  0  0  0  0
  -21.0699   -6.6630    5.6639 C   0  0  0  0  0  0  0  0  0  0  0  0
  -20.9825   -7.8272    4.8530 C   0  0  0  0  0  0  0  0  0  0  0  0
  -19.8799   -8.0013    3.9759 C   0  0  0  0  0  0  0  0  0  0  0  0
  -18.8627   -7.0130    3.9103 C   0  0  0  0  0  0  0  0  0  0  0  0
  2  4  1  0  0  0  0
  3  5  1  0  0  0  0
  4  7  1  0  0  0  0
  6  1  1  0  0  0  0
  7 10  1  0  0  0  0
  8  6  1  0  0  0  0
  8 11  1  0  0  0  0
  9  6  1  0  0  0  0
 10 13  1  0  0  0  0
 11 14  1  0  0  0  0
 12  9  1  0  0  0  0
 14 12  1  0  0  0  0
 14 15  1  0  0  0  0
 15 16  1  0  0  0  0
 15 17  1  0  0  0  0
 18  2  1  0  0  0  0
 18 23  2  0  0  0  0
 19  1  1  0  0  0  0
 19 18  1  0  0  0  0
 20 19  2  0  0  0  0
 21  3  1  0  0  0  0
 21 20  1  0  0  0  0
 22 21  2  0  0  0  0
 22 23  1  0  0  0  0
M  END
>  <CHROM.1>
-167.21271469,176.75675731,-62.15445762,-174.32169011,-52.59595070,-158.20254379
-174.26253297,33.66860697,-128.88674743,-93.28097970,-123.46374154,-20.04641906
-5.12908251,5.91874947,-2.83245611,-0.70325293,-2.65799322

>  <Name>
1uui_lig

>  <RI>
0

>  <Rbt.Current_Directory>
/home/itssahil/PROJECTS/Mol_Feturizer/New_Systems/rnas/1uui

>  <Rbt.Executable>
rbdock ($Id: //depot/dev/client3/rdock/2013.1/src/exe/rbdock.cxx#4 $)

>  <Rbt.Library>
libRbt.so (2013.1, Build901 2013/11/27)

>  <Rbt.Parameter_File>
/export/apps/rDock/src/rDock_2013.1_src/data/scripts/dock_solv.prm

>  <Rbt.Receptor>
prm/blind_docking_40.prm

>  <SCORE>
-23.5956

>  <SCORE.INTER>
-17.8353

>  <SCORE.INTER.CONST>
1

>  <SCORE.INTER.POLAR>
-2.30344

>  <SCORE.INTER.ROT>
10

>  <SCORE.INTER.SOLV>
7.14887

>  <SCORE.INTER.VDW>
-16.8617

>  <SCORE.INTER.norm>
-0.775446

>  <SCORE.INTRA>
-5.76036

>  <SCORE.INTRA.DIHEDRAL>
-11.6299

>  <SCORE.INTRA.DIHEDRAL.0>
23.4151

>  <SCORE.INTRA.POLAR>
0

>  <SCORE.INTRA.POLAR.0>
0

>  <SCORE.INTRA.REPUL>
0

>  <SCORE.INTRA.REPUL.0>
0

>  <SCORE.INTRA.SOLV>
0.0889679

>  <SCORE.INTRA.SOLV.lig_0>
-17.3568

>  <SCORE.INTRA.VDW>
0.0101247

>  <SCORE.INTRA.VDW.0>
1.0768

>  <SCORE.INTRA.norm>
-0.25045

>  <SCORE.RESTR>
0

>  <SCORE.RESTR.CAVITY>
0

>  <SCORE.RESTR.norm>
0

>  <SCORE.SYSTEM>
0

>  <SCORE.SYSTEM.CONST>
0

>  <SCORE.SYSTEM.DIHEDRAL>
0

>  <SCORE.SYSTEM.SOLV>
0

>  <SCORE.SYSTEM.norm>
0

>  <SCORE.heavy>
23

>  <SCORE.norm>
-1.0259

>  <RMSD>
12.266

$$$$
1uui_lig
 OpenBabel11021811413D
libRbt.so/2013.1/901 2013/11/27
 23 24  0  0  0  0  0  0  0  0999 V2000
  -21.0624   -6.2070    6.9768 C   0  0  0  0  0  0  0  0  0  0  0  0
  -19.4496   -8.5044    6.2206 O   0  0  0  0  0  0  0  0  0  0  0  0
  -20.4223   -4.5140    2.2666 O   0  0  0  0  0  0  0  0  0  0  0  0
  -18.0823   -8.4540    6.6470 C   0  0  0  0  0  0  0  0  0  0  0  0
  -19.3211   -3.6032    2.2234 C   0  0  0  0  0  0  0  0  0  0  0  0
  -19.9967   -5.7507    7.9284 N   0  0  0  0  0  0  0  0  0  0  0  0
  -17.9765   -9.0380    8.0566 C   0  0  0  0  0  0  0  0  0  0  0  0
  -20.4425   -5.8844    9.3420 C   0  0  0  0  0  0  0  0  0  0  0  0
  -19.6143   -4.3391    7.6606 C   0  0  0  0  0  0  0  0  0  0  0  0
  -16.5056   -9.1354    8.4741 C   0  0  0  0  0  0  0  0  0  0  0  0
  -21.6875   -5.0302    9.6356 C   0  0  0  0  0  0  0  0  0  0  0  0
  -20.8153   -3.3889    7.8047 C   0  0  0  0  0  0  0  0  0  0  0  0
  -16.4196   -9.6151    9.8715 N   0  0  0  0  0  0  0  0  0  0  0  0
  -21.9413   -4.0176    8.5632 N   0  0  0  0  0  0  0  0  0  0  0  0
  -23.2307   -3.4671    8.4418 C   0  0  0  0  0  0  0  0  0  0  0  0
  -24.3315   -4.1816    8.8114 N   0  0  0  0  0  0  0  0  0  0  0  0
  -23.4188   -2.2635    7.8288 N   0  0  0  0  0  0  0  0  0  0  0  0
  -19.6918   -7.5001    5.2313 C   0  0  0  0  0  0  0  0  0  0  0  0
  -20.4754   -6.3587    5.5543 C   0  0  0  0  0  0  0  0  0  0  0  0
  -20.7173   -5.3646    4.5657 C   0  0  0  0  0  0  0  0  0  0  0  0
  -20.1764   -5.5137    3.2598 C   0  0  0  0  0  0  0  0  0  0  0  0
  -19.3933   -6.6539    2.9407 C   0  0  0  0  0  0  0  0  0  0  0  0
  -19.1521   -7.6472    3.9261 C   0  0  0  0  0  0  0  0  0  0  0  0
  2  4  1  0  0  0  0
  3  5  1  0  0  0  0
  4  7  1  0  0  0  0
  6  1  1  0  0  0  0
  7 10  1  0  0  0  0
  8  6  1  0  0  0  0
  8 11  1  0  0  0  0
  9  6  1  0  0  0  0
 10 13  1  0  0  0  0
 11 14  1  0  0  0  0
 12  9  1  0  0  0  0
 14 12  1  0  0  0  0
 14 15  1  0  0  0  0
 15 16  1  0  0  0  0
 15 17  1  0  0  0  0
 18  2  1  0  0  0  0
 18 23  2  0  0  0  0
 19  1  1  0  0  0  0
 19 18  1  0  0  0  0
 20 19  2  0  0  0  0
 21  3  1  0  0  0  0
 21 20  1  0  0  0  0
 22 21  2  0  0  0  0
 22 23  1  0  0  0  0
M  END
>  <CHROM.1>
155.08388957,173.86751931,-167.38846977,176.20604573,-74.01081139,-29.04194019
46.33863164,170.97454295,-108.54611200,77.65778662,96.13945425,-20.18810994
-5.92582819,6.68959732,2.99882831,0.81197272,-1.37368235

>  <Name>
1uui_lig

>  <RI>
0

>  <Rbt.Current_Directory>
/home/itssahil/PROJECTS/Mol_Feturizer/New_Systems/rnas/1uui

>  <Rbt.Executable>
rbdock ($Id: //depot/dev/client3/rdock/2013.1/src/exe/rbdock.cxx#4 $)

>  <Rbt.Library>
libRbt.so (2013.1, Build901 2013/11/27)

>  <Rbt.Parameter_File>
/export/apps/rDock/src/rDock_2013.1_src/data/scripts/dock_solv.prm

>  <Rbt.Receptor>
prm/blind_docking_40.prm

>  <SCORE>
-22.5446

>  <SCORE.INTER>
-17.5441

>  <SCORE.INTER.CONST>
1

>  <SCORE.INTER.POLAR>
-2.87716

>  <SCORE.INTER.ROT>
10

>  <SCORE.INTER.SOLV>
5.57401

>  <SCORE.INTER.VDW>
-14.2302

>  <SCORE.INTER.norm>
-0.762788

>  <SCORE.INTRA>
-5.37792

>  <SCORE.INTRA.DIHEDRAL>
-6.2994

>  <SCORE.INTRA.DIHEDRAL.0>
23.4151

>  <SCORE.INTRA.POLAR>
0

>  <SCORE.INTRA.POLAR.0>
0

>  <SCORE.INTRA.REPUL>
0

>  <SCORE.INTRA.REPUL.0>
0

>  <SCORE.INTRA.SOLV>
0.198978

>  <SCORE.INTRA.SOLV.lig_0>
-17.3568

>  <SCORE.INTRA.VDW>
-2.32771

>  <SCORE.INTRA.VDW.0>
1.0768

>  <SCORE.INTRA.norm>
-0.233823

>  <SCORE.RESTR>
0.377402

>  <SCORE.RESTR.CAVITY>
0.377402

>  <SCORE.RESTR.norm>
0.0164088

>  <SCORE.SYSTEM>
0

>  <SCORE.SYSTEM.CONST>
0

>  <SCORE.SYSTEM.DIHEDRAL>
0

>  <SCORE.SYSTEM.SOLV>
0

>  <SCORE.SYSTEM.norm>
0

>  <SCORE.heavy>
23

>  <SCORE.norm>
-0.980202

>  <RMSD>
12.577

$$$$
1uui_lig
 OpenBabel11021811413D
libRbt.so/2013.1/901 2013/11/27
 23 24  0  0  0  0  0  0  0  0999 V2000
  -21.1357   -5.9016    7.3119 C   0  0  0  0  0  0  0  0  0  0  0  0
  -19.0710   -7.7869    8.1081 O   0  0  0  0  0  0  0  0  0  0  0  0
  -18.3218   -4.9126    3.2418 O   0  0  0  0  0  0  0  0  0  0  0  0
  -18.6057   -9.1338    7.9546 C   0  0  0  0  0  0  0  0  0  0  0  0
  -17.2286   -4.0026    3.3861 C   0  0  0  0  0  0  0  0  0  0  0  0
  -20.7760   -5.8464    8.7669 N   0  0  0  0  0  0  0  0  0  0  0  0
  -17.1252   -9.1973    8.3331 C   0  0  0  0  0  0  0  0  0  0  0  0
  -21.9829   -5.9844    9.6266 C   0  0  0  0  0  0  0  0  0  0  0  0
  -20.0774   -4.5753    9.0935 C   0  0  0  0  0  0  0  0  0  0  0  0
  -16.9319   -8.7140    9.7739 C   0  0  0  0  0  0  0  0  0  0  0  0
  -22.9956   -4.8527    9.3820 C   0  0  0  0  0  0  0  0  0  0  0  0
  -20.9511   -3.3499    8.7755 C   0  0  0  0  0  0  0  0  0  0  0  0
  -15.5263   -8.9314   10.1834 N   0  0  0  0  0  0  0  0  0  0  0  0
  -22.3940   -3.7137    8.6203 N   0  0  0  0  0  0  0  0  0  0  0  0
  -23.2489   -2.8216    7.9466 C   0  0  0  0  0  0  0  0  0  0  0  0
  -23.8661   -3.1887    6.7876 N   0  0  0  0  0  0  0  0  0  0  0  0
  -23.3738   -1.5290    8.3626 N   0  0  0  0  0  0  0  0  0  0  0  0
  -18.8834   -7.0618    6.8894 C   0  0  0  0  0  0  0  0  0  0  0  0
  -19.8664   -6.1293    6.4587 C   0  0  0  0  0  0  0  0  0  0  0  0
  -19.6775   -5.4138    5.2437 C   0  0  0  0  0  0  0  0  0  0  0  0
  -18.5091   -5.6316    4.4641 C   0  0  0  0  0  0  0  0  0  0  0  0
  -17.5288   -6.5624    4.8976 C   0  0  0  0  0  0  0  0  0  0  0  0
  -17.7167   -7.2779    6.1094 C   0  0  0  0  0  0  0  0  0  0  0  0
  2  4  1  0  0  0  0
  3  5  1  0  0  0  0
  4  7  1  0  0  0  0
  6  1  1  0  0  0  0
  7 10  1  0  0  0  0
  8  6  1  0  0  0  0
  8 11  1  0  0  0  0
  9  6  1  0  0  0  0
 10 13  1  0  0  0  0
 11 14  1  0  0  0  0
 12  9  1  0  0  0  0
 14 12  1  0  0  0  0
 14 15  1  0  0  0  0
 15 16  1  0  0  0  0
 15 17  1  0  0  0  0
 18  2  1  0  0  0  0
 18 23  2  0  0  0  0
 19  1  1  0  0  0  0
 19 18  1  0  0  0  0
 20 19  2  0  0  0  0
 21  3  1  0  0  0  0
 21 20  1  0  0  0  0
 22 21  2  0  0  0  0
 22 23  1  0  0  0  0
M  END
>  <CHROM.1>
89.54412345,58.20931926,-165.21421275,173.26680409,49.67220478,-74.54983687
173.53524945,16.57415405,141.53662775,41.90382690,112.22980405,-19.81894240
-5.74553598,7.42155549,2.87709845,0.66451954,-1.07407540

>  <Name>
1uui_lig

>  <RI>
0

>  <Rbt.Current_Directory>
/home/itssahil/PROJECTS/Mol_Feturizer/New_Systems/rnas/1uui

>  <Rbt.Executable>
rbdock ($Id: //depot/dev/client3/rdock/2013.1/src/exe/rbdock.cxx#4 $)

>  <Rbt.Library>
libRbt.so (2013.1, Build901 2013/11/27)

>  <Rbt.Parameter_File>
/export/apps/rDock/src/rDock_2013.1_src/data/scripts/dock_solv.prm

>  <Rbt.Receptor>
prm/blind_docking_40.prm

>  <SCORE>
-28.1667

>  <SCORE.INTER>
-21.1937

>  <SCORE.INTER.CONST>
1

>  <SCORE.INTER.POLAR>
-2.22107

>  <SCORE.INTER.ROT>
10

>  <SCORE.INTER.SOLV>
6.74004

>  <SCORE.INTER.VDW>
-19.2389

>  <SCORE.INTER.norm>
-0.921467

>  <SCORE.INTRA>
-6.97293

>  <SCORE.INTRA.DIHEDRAL>
-8.7741

>  <SCORE.INTRA.DIHEDRAL.0>
23.4151

>  <SCORE.INTRA.POLAR>
-0.784704

>  <SCORE.INTRA.POLAR.0>
0

>  <SCORE.INTRA.REPUL>
0

>  <SCORE.INTRA.REPUL.0>
0

>  <SCORE.INTRA.SOLV>
0.34642

>  <SCORE.INTRA.SOLV.lig_0>
-17.3568

>  <SCORE.INTRA.VDW>
-0.0910954

>  <SCORE.INTRA.VDW.0>
1.0768

>  <SCORE.INTRA.norm>
-0.303171

>  <SCORE.RESTR>
0

>  <SCORE.RESTR.CAVITY>
0

>  <SCORE.RESTR.norm>
0

>  <SCORE.SYSTEM>
0

>  <SCORE.SYSTEM.CONST>
0

>  <SCORE.SYSTEM.DIHEDRAL>
0

>  <SCORE.SYSTEM.SOLV>
0

>  <SCORE.SYSTEM.norm>
0

>  <SCORE.heavy>
23

>  <SCORE.norm>
-1.22464

>  <RMSD>
12.618

$$$$
1uui_lig
 OpenBabel11021811413D
libRbt.so/2013.1/901 2013/11/27
 23 24  0  0  0  0  0  0  0  0999 V2000
  -19.8333   -5.2723    7.8823 C   0  0  0  0  0  0  0  0  0  0  0  0
  -20.1363   -2.3841    7.7474 O   0  0  0  0  0  0  0  0  0  0  0  0
  -16.5140   -4.8565    4.1046 O   0  0  0  0  0  0  0  0  0  0  0  0
  -19.7678   -1.0135    7.9464 C   0  0  0  0  0  0  0  0  0  0  0  0
  -16.7116   -4.3192    2.7945 C   0  0  0  0  0  0  0  0  0  0  0  0
  -18.9213   -6.2767    8.5218 N   0  0  0  0  0  0  0  0  0  0  0  0
  -20.7959   -0.3474    8.8621 C   0  0  0  0  0  0  0  0  0  0  0  0
  -19.4585   -7.6577    8.3838 C   0  0  0  0  0  0  0  0  0  0  0  0
  -18.7152   -5.9664    9.9611 C   0  0  0  0  0  0  0  0  0  0  0  0
  -22.1922   -0.4441    8.2393 C   0  0  0  0  0  0  0  0  0  0  0  0
  -20.8285   -7.8127    9.0657 C   0  0  0  0  0  0  0  0  0  0  0  0
  -20.0428   -5.9709   10.7381 C   0  0  0  0  0  0  0  0  0  0  0  0
  -23.1411    0.3770    9.0241 N   0  0  0  0  0  0  0  0  0  0  0  0
  -21.1301   -6.6738    9.9885 N   0  0  0  0  0  0  0  0  0  0  0  0
  -22.4685   -6.4277   10.3471 C   0  0  0  0  0  0  0  0  0  0  0  0
  -22.8449   -6.3968   11.6572 N   0  0  0  0  0  0  0  0  0  0  0  0
  -23.4411   -6.3486    9.3945 N   0  0  0  0  0  0  0  0  0  0  0  0
  -19.2309   -3.0071    6.8318 C   0  0  0  0  0  0  0  0  0  0  0  0
  -19.0489   -4.4168    6.8605 C   0  0  0  0  0  0  0  0  0  0  0  0
  -18.1440   -5.0314    5.9510 C   0  0  0  0  0  0  0  0  0  0  0  0
  -17.4249   -4.2370    5.0171 C   0  0  0  0  0  0  0  0  0  0  0  0
  -17.6097   -2.8297    4.9901 C   0  0  0  0  0  0  0  0  0  0  0  0
  -18.5117   -2.2151    5.8981 C   0  0  0  0  0  0  0  0  0  0  0  0
  2  4  1  0  0  0  0
  3  5  1  0  0  0  0
  4  7  1  0  0  0  0
  6  1  1  0  0  0  0
  7 10  1  0  0  0  0
  8  6  1  0  0  0  0
  8 11  1  0  0  0  0
  9  6  1  0  0  0  0
 10 13  1  0  0  0  0
 11 14  1  0  0  0  0
 12  9  1  0  0  0  0
 14 12  1  0  0  0  0
 14 15  1  0  0  0  0
 15 16  1  0  0  0  0
 15 17  1  0  0  0  0
 18  2  1  0  0  0  0
 18 23  2  0  0  0  0
 19  1  1  0  0  0  0
 19 18  1  0  0  0  0
 20 19  2  0  0  0  0
 21  3  1  0  0  0  0
 21 20  1  0  0  0  0
 22 21  2  0  0  0  0
 22 23  1  0  0  0  0
M  END
>  <CHROM.1>
176.68286916,-58.58905128,-125.68964340,-171.42735473,-158.34360806,123.80476016
-3.98352720,-178.57401449,155.65565526,-135.34056679,134.79493259,-19.93959249
-4.31472273,7.88589935,-2.58632747,0.79506649,-0.31183772

>  <Name>
1uui_lig

>  <RI>
0

>  <Rbt.Current_Directory>
/home/itssahil/PROJECTS/Mol_Feturizer/New_Systems/rnas/1uui

>  <Rbt.Executable>
rbdock ($Id: //depot/dev/client3/rdock/2013.1/src/exe/rbdock.cxx#4 $)

>  <Rbt.Library>
libRbt.so (2013.1, Build901 2013/11/27)

>  <Rbt.Parameter_File>
/export/apps/rDock/src/rDock_2013.1_src/data/scripts/dock_solv.prm

>  <Rbt.Receptor>
prm/blind_docking_40.prm

>  <SCORE>
-29.1458

>  <SCORE.INTER>
-27.208

>  <SCORE.INTER.CONST>
1

>  <SCORE.INTER.POLAR>
-3.75668

>  <SCORE.INTER.ROT>
10

>  <SCORE.INTER.SOLV>
7.10553

>  <SCORE.INTER.VDW>
-18.2516

>  <SCORE.INTER.norm>
-1.18296

>  <SCORE.INTRA>
-1.93782

>  <SCORE.INTRA.DIHEDRAL>
-11.0554

>  <SCORE.INTRA.DIHEDRAL.0>
23.4151

>  <SCORE.INTRA.POLAR>
0

>  <SCORE.INTRA.POLAR.0>
0

>  <SCORE.INTRA.REPUL>
0

>  <SCORE.INTRA.REPUL.0>
0

>  <SCORE.INTRA.SOLV>
-0.0114184

>  <SCORE.INTRA.SOLV.lig_0>
-17.3568

>  <SCORE.INTRA.VDW>
3.59559

>  <SCORE.INTRA.VDW.0>
1.0768

>  <SCORE.INTRA.norm>
-0.0842531

>  <SCORE.RESTR>
0

>  <SCORE.RESTR.CAVITY>
0

>  <SCORE.RESTR.norm>
0

>  <SCORE.SYSTEM>
0

>  <SCORE.SYSTEM.CONST>
0

>  <SCORE.SYSTEM.DIHEDRAL>
0

>  <SCORE.SYSTEM.SOLV>
0

>  <SCORE.SYSTEM.norm>
0

>  <SCORE.heavy>
23

>  <SCORE.norm>
-1.26721

>  <RMSD>
12.742

$$$$
1uui_lig
 OpenBabel11021811413D
libRbt.so/2013.1/901 2013/11/27
 23 24  0  0  0  0  0  0  0  0999 V2000
  -19.9920   -6.0424    8.4607 C   0  0  0  0  0  0  0  0  0  0  0  0
  -17.4628   -7.3574    7.8904 O   0  0  0  0  0  0  0  0  0  0  0  0
  -19.9930   -4.4969    3.6573 O   0  0  0  0  0  0  0  0  0  0  0  0
  -17.2185   -8.7104    7.4856 C   0  0  0  0  0  0  0  0  0  0  0  0
  -19.0951   -3.5108    3.1418 C   0  0  0  0  0  0  0  0  0  0  0  0
  -20.0159   -4.6781    9.0832 N   0  0  0  0  0  0  0  0  0  0  0  0
  -16.6145   -9.4821    8.6598 C   0  0  0  0  0  0  0  0  0  0  0  0
  -19.8631   -4.7569   10.5615 C   0  0  0  0  0  0  0  0  0  0  0  0
  -21.2782   -3.9654    8.7526 C   0  0  0  0  0  0  0  0  0  0  0  0
  -15.3682   -8.7569    9.1774 C   0  0  0  0  0  0  0  0  0  0  0  0
  -21.0021   -5.5573   11.2155 C   0  0  0  0  0  0  0  0  0  0  0  0
  -22.5122   -4.7354    9.2532 C   0  0  0  0  0  0  0  0  0  0  0  0
  -15.2329   -8.9853   10.6334 N   0  0  0  0  0  0  0  0  0  0  0  0
  -22.1553   -5.7599   10.2835 N   0  0  0  0  0  0  0  0  0  0  0  0
  -23.0634   -6.8028   10.5447 C   0  0  0  0  0  0  0  0  0  0  0  0
  -23.7715   -7.3804    9.5329 N   0  0  0  0  0  0  0  0  0  0  0  0
  -23.3550   -7.1671   11.8260 N   0  0  0  0  0  0  0  0  0  0  0  0
  -18.0975   -6.6359    6.8309 C   0  0  0  0  0  0  0  0  0  0  0  0
  -19.3361   -5.9771    7.0619 C   0  0  0  0  0  0  0  0  0  0  0  0
  -19.9659   -5.2645    6.0039 C   0  0  0  0  0  0  0  0  0  0  0  0
  -19.3573   -5.2123    4.7204 C   0  0  0  0  0  0  0  0  0  0  0  0
  -18.1200   -5.8700    4.4932 C   0  0  0  0  0  0  0  0  0  0  0  0
  -17.4911   -6.5824    5.5480 C   0  0  0  0  0  0  0  0  0  0  0  0
  2  4  1  0  0  0  0
  3  5  1  0  0  0  0
  4  7  1  0  0  0  0
  6  1  1  0  0  0  0
  7 10  1  0  0  0  0
  8  6  1  0  0  0  0
  8 11  1  0  0  0  0
  9  6  1  0  0  0  0
 10 13  1  0  0  0  0
 11 14  1  0  0  0  0
 12  9  1  0  0  0  0
 14 12  1  0  0  0  0
 14 15  1  0  0  0  0
 15 16  1  0  0  0  0
 15 17  1  0  0  0  0
 18  2  1  0  0  0  0
 18 23  2  0  0  0  0
 19  1  1  0  0  0  0
 19 18  1  0  0  0  0
 20 19  2  0  0  0  0
 21  3  1  0  0  0  0
 21 20  1  0  0  0  0
 22 21  2  0  0  0  0
 22 23  1  0  0  0  0
M  END
>  <CHROM.1>
-176.76169326,-54.53433718,-146.83093934,148.47888822,39.32508401,-153.40689944
-36.15307541,-149.77504364,124.46797621,114.04074600,123.69102055,-19.58959649
-6.27608571,8.10619912,2.50409517,-0.45960637,2.02461154

>  <Name>
1uui_lig

>  <RI>
0

>  <Rbt.Current_Directory>
/home/itssahil/PROJECTS/Mol_Feturizer/New_Systems/rnas/1uui

>  <Rbt.Executable>
rbdock ($Id: //depot/dev/client3/rdock/2013.1/src/exe/rbdock.cxx#4 $)

>  <Rbt.Library>
libRbt.so (2013.1, Build901 2013/11/27)

>  <Rbt.Parameter_File>
/export/apps/rDock/src/rDock_2013.1_src/data/scripts/dock_solv.prm

>  <Rbt.Receptor>
prm/blind_docking_40.prm

>  <SCORE>
-32.8514

>  <SCORE.INTER>
-29.7425

>  <SCORE.INTER.CONST>
1

>  <SCORE.INTER.POLAR>
-3.45151

>  <SCORE.INTER.ROT>
10

>  <SCORE.INTER.SOLV>
10.1582

>  <SCORE.INTER.VDW>
-21.976

>  <SCORE.INTER.norm>
-1.29315

>  <SCORE.INTRA>
-3.14236

>  <SCORE.INTRA.DIHEDRAL>
-6.30868

>  <SCORE.INTRA.DIHEDRAL.0>
23.4151

>  <SCORE.INTRA.POLAR>
0

>  <SCORE.INTRA.POLAR.0>
0

>  <SCORE.INTRA.REPUL>
0

>  <SCORE.INTRA.REPUL.0>
0

>  <SCORE.INTRA.SOLV>
0.0739037

>  <SCORE.INTRA.SOLV.lig_0>
-17.3568

>  <SCORE.INTRA.VDW>
-0.0249659

>  <SCORE.INTRA.VDW.0>
1.0768

>  <SCORE.INTRA.norm>
-0.136624

>  <SCORE.RESTR>
0.033428

>  <SCORE.RESTR.CAVITY>
0.033428

>  <SCORE.RESTR.norm>
0.00145339

>  <SCORE.SYSTEM>
0

>  <SCORE.SYSTEM.CONST>
0

>  <SCORE.SYSTEM.DIHEDRAL>
0

>  <SCORE.SYSTEM.SOLV>
0

>  <SCORE.SYSTEM.norm>
0

>  <SCORE.heavy>
23

>  <SCORE.norm>
-1.42832

>  <RMSD>
12.799

$$$$
1uui_lig
 OpenBabel11021811413D
libRbt.so/2013.1/901 2013/11/27
 23 24  0  0  0  0  0  0  0  0999 V2000
  -19.9068   -5.1576    8.8761 C   0  0  0  0  0  0  0  0  0  0  0  0
  -18.8357   -5.1541    6.1736 O   0  0  0  0  0  0  0  0  0  0  0  0
  -19.8187   -0.1172    8.6569 O   0  0  0  0  0  0  0  0  0  0  0  0
  -19.3166   -5.1334    4.8236 C   0  0  0  0  0  0  0  0  0  0  0  0
  -21.1646    0.2872    8.3942 C   0  0  0  0  0  0  0  0  0  0  0  0
  -21.0776   -5.8544    8.2490 N   0  0  0  0  0  0  0  0  0  0  0  0
  -19.6045   -6.5665    4.3736 C   0  0  0  0  0  0  0  0  0  0  0  0
  -22.3595   -5.4158    8.8646 C   0  0  0  0  0  0  0  0  0  0  0  0
  -20.9469   -7.3301    8.3741 C   0  0  0  0  0  0  0  0  0  0  0  0
  -18.5207   -7.5100    4.9048 C   0  0  0  0  0  0  0  0  0  0  0  0
  -22.4139   -5.7343   10.3684 C   0  0  0  0  0  0  0  0  0  0  0  0
  -20.8679   -7.7698    9.8460 C   0  0  0  0  0  0  0  0  0  0  0  0
  -17.1941   -7.0533    4.4335 N   0  0  0  0  0  0  0  0  0  0  0  0
  -21.3488   -6.7026   10.7778 N   0  0  0  0  0  0  0  0  0  0  0  0
  -20.9775   -6.7693   12.1336 C   0  0  0  0  0  0  0  0  0  0  0  0
  -21.9219   -6.7482   13.1168 N   0  0  0  0  0  0  0  0  0  0  0  0
  -19.6646   -6.7206   12.4990 N   0  0  0  0  0  0  0  0  0  0  0  0
  -19.0795   -3.8915    6.8001 C   0  0  0  0  0  0  0  0  0  0  0  0
  -19.6036   -3.8429    8.1208 C   0  0  0  0  0  0  0  0  0  0  0  0
  -19.8487   -2.5848    8.7381 C   0  0  0  0  0  0  0  0  0  0  0  0
  -19.5699   -1.3812    8.0353 C   0  0  0  0  0  0  0  0  0  0  0  0
  -19.0454   -1.4331    6.7171 C   0  0  0  0  0  0  0  0  0  0  0  0
  -18.8014   -2.6880    6.0996 C   0  0  0  0  0  0  0  0  0  0  0  0
  2  4  1  0  0  0  0
  3  5  1  0  0  0  0
  4  7  1  0  0  0  0
  6  1  1  0  0  0  0
  7 10  1  0  0  0  0
  8  6  1  0  0  0  0
  8 11  1  0  0  0  0
  9  6  1  0  0  0  0
 10 13  1  0  0  0  0
 11 14  1  0  0  0  0
 12  9  1  0  0  0  0
 14 12  1  0  0  0  0
 14 15  1  0  0  0  0
 15 16  1  0  0  0  0
 15 17  1  0  0  0  0
 18  2  1  0  0  0  0
 18 23  2  0  0  0  0
 19  1  1  0  0  0  0
 19 18  1  0  0  0  0
 20 19  2  0  0  0  0
 21  3  1  0  0  0  0
 21 20  1  0  0  0  0
 22 21  2  0  0  0  0
 22 23  1  0  0  0  0
M  END
>  <CHROM.1>
-156.11775327,-39.57535267,-89.72427253,-57.32578093,-42.72635777,42.84610027
-39.41682526,-117.57983057,135.41723045,-69.34320507,-88.52758626,-20.07521186
-4.89177236,8.25261871,-2.70436242,1.17240113,-0.01767746

>  <Name>
1uui_lig

>  <RI>
0

>  <Rbt.Current_Directory>
/home/itssahil/PROJECTS/Mol_Feturizer/New_Systems/rnas/1uui

>  <Rbt.Executable>
rbdock ($Id: //depot/dev/client3/rdock/2013.1/src/exe/rbdock.cxx#4 $)

>  <Rbt.Library>
libRbt.so (2013.1, Build901 2013/11/27)

>  <Rbt.Parameter_File>
/export/apps/rDock/src/rDock_2013.1_src/data/scripts/dock_solv.prm

>  <Rbt.Receptor>
prm/blind_docking_40.prm

>  <SCORE>
-19.1327

>  <SCORE.INTER>
-15.7618

>  <SCORE.INTER.CONST>
1

>  <SCORE.INTER.POLAR>
-2.62879

>  <SCORE.INTER.ROT>
10

>  <SCORE.INTER.SOLV>
6.5491

>  <SCORE.INTER.VDW>
-14.195

>  <SCORE.INTER.norm>
-0.685297

>  <SCORE.INTRA>
-3.46629

>  <SCORE.INTRA.DIHEDRAL>
-5.51394

>  <SCORE.INTRA.DIHEDRAL.0>
23.4151

>  <SCORE.INTRA.POLAR>
0

>  <SCORE.INTRA.POLAR.0>
0

>  <SCORE.INTRA.REPUL>
0

>  <SCORE.INTRA.REPUL.0>
0

>  <SCORE.INTRA.SOLV>
0.605122

>  <SCORE.INTRA.SOLV.lig_0>
-17.3568

>  <SCORE.INTRA.VDW>
-1.01188

>  <SCORE.INTRA.VDW.0>
1.0768

>  <SCORE.INTRA.norm>
-0.150708

>  <SCORE.RESTR>
0.0954382

>  <SCORE.RESTR.CAVITY>
0.0954382

>  <SCORE.RESTR.norm>
0.00414949

>  <SCORE.SYSTEM>
0

>  <SCORE.SYSTEM.CONST>
0

>  <SCORE.SYSTEM.DIHEDRAL>
0

>  <SCORE.SYSTEM.SOLV>
0

>  <SCORE.SYSTEM.norm>
0

>  <SCORE.heavy>
23

>  <SCORE.norm>
-0.831856

>  <RMSD>
12.806

$$$$
1uui_lig
 OpenBabel11021811413D
libRbt.so/2013.1/901 2013/11/27
 23 24  0  0  0  0  0  0  0  0999 V2000
  -21.3713   -6.0649    7.3944 C   0  0  0  0  0  0  0  0  0  0  0  0
  -19.1756   -7.8264    8.1206 O   0  0  0  0  0  0  0  0  0  0  0  0
  -18.5469   -4.5516    3.4963 O   0  0  0  0  0  0  0  0  0  0  0  0
  -18.6423   -9.1325    7.8684 C   0  0  0  0  0  0  0  0  0  0  0  0
  -19.3762   -5.0509    2.4442 C   0  0  0  0  0  0  0  0  0  0  0  0
  -21.0606   -6.1688    8.8580 N   0  0  0  0  0  0  0  0  0  0  0  0
  -17.1528   -9.1398    8.2158 C   0  0  0  0  0  0  0  0  0  0  0  0
  -22.3014   -6.3361    9.6624 C   0  0  0  0  0  0  0  0  0  0  0  0
  -20.3213   -4.9686    9.3306 C   0  0  0  0  0  0  0  0  0  0  0  0
  -16.9530   -8.7138    9.6737 C   0  0  0  0  0  0  0  0  0  0  0  0
  -23.2569   -5.1416    9.5008 C   0  0  0  0  0  0  0  0  0  0  0  0
  -21.1316   -3.6799    9.1096 C   0  0  0  0  0  0  0  0  0  0  0  0
  -15.5279   -8.8675   10.0423 N   0  0  0  0  0  0  0  0  0  0  0  0
  -22.5821   -3.9615    8.8749 N   0  0  0  0  0  0  0  0  0  0  0  0
  -23.3751   -2.9702    8.2675 C   0  0  0  0  0  0  0  0  0  0  0  0
  -22.8976   -1.7049    8.0940 N   0  0  0  0  0  0  0  0  0  0  0  0
  -24.6814   -3.2142    7.9619 N   0  0  0  0  0  0  0  0  0  0  0  0
  -19.0186   -7.0010    6.9630 C   0  0  0  0  0  0  0  0  0  0  0  0
  -20.0656   -6.1239    6.5681 C   0  0  0  0  0  0  0  0  0  0  0  0
  -19.9066   -5.3082    5.4135 C   0  0  0  0  0  0  0  0  0  0  0  0
  -18.7042   -5.3711    4.6581 C   0  0  0  0  0  0  0  0  0  0  0  0
  -17.6601   -6.2470    5.0556 C   0  0  0  0  0  0  0  0  0  0  0  0
  -17.8181   -7.0623    6.2072 C   0  0  0  0  0  0  0  0  0  0  0  0
  2  4  1  0  0  0  0
  3  5  1  0  0  0  0
  4  7  1  0  0  0  0
  6  1  1  0  0  0  0
  7 10  1  0  0  0  0
  8  6  1  0  0  0  0
  8 11  1  0  0  0  0
  9  6  1  0  0  0  0
 10 13  1  0  0  0  0
 11 14  1  0  0  0  0
 12  9  1  0  0  0  0
 14 12  1  0  0  0  0
 14 15  1  0  0  0  0
 15 16  1  0  0  0  0
 15 17  1  0  0  0  0
 18  2  1  0  0  0  0
 18 23  2  0  0  0  0
 19  1  1  0  0  0  0
 19 18  1  0  0  0  0
 20 19  2  0  0  0  0
 21  3  1  0  0  0  0
 21 20  1  0  0  0  0
 22 21  2  0  0  0  0
 22 23  1  0  0  0  0
M  END
>  <CHROM.1>
87.91615151,56.97522917,-170.81858815,173.80875703,166.92663195,157.65230965
-103.13721060,172.59064513,139.21958117,38.55547720,-72.11918089,-20.07286233
-5.84173043,7.50938419,2.96068298,0.65732345,-1.15663658

>  <Name>
1uui_lig

>  <RI>
0

>  <Rbt.Current_Directory>
/home/itssahil/PROJECTS/Mol_Feturizer/New_Systems/rnas/1uui

>  <Rbt.Executable>
rbdock ($Id: //depot/dev/client3/rdock/2013.1/src/exe/rbdock.cxx#4 $)

>  <Rbt.Library>
libRbt.so (2013.1, Build901 2013/11/27)

>  <Rbt.Parameter_File>
/export/apps/rDock/src/rDock_2013.1_src/data/scripts/dock_solv.prm

>  <Rbt.Receptor>
prm/blind_docking_40.prm

>  <SCORE>
-26.8304

>  <SCORE.INTER>
-21.2871

>  <SCORE.INTER.CONST>
1

>  <SCORE.INTER.POLAR>
-2.07223

>  <SCORE.INTER.ROT>
10

>  <SCORE.INTER.SOLV>
7.53311

>  <SCORE.INTER.VDW>
-20.0617

>  <SCORE.INTER.norm>
-0.925528

>  <SCORE.INTRA>
-5.5432

>  <SCORE.INTRA.DIHEDRAL>
-8.83237

>  <SCORE.INTRA.DIHEDRAL.0>
23.4151

>  <SCORE.INTRA.POLAR>
-0.729199

>  <SCORE.INTRA.POLAR.0>
0

>  <SCORE.INTRA.REPUL>
0

>  <SCORE.INTRA.REPUL.0>
0

>  <SCORE.INTRA.SOLV>
0.361597

>  <SCORE.INTRA.SOLV.lig_0>
-17.3568

>  <SCORE.INTRA.VDW>
1.17146

>  <SCORE.INTRA.VDW.0>
1.0768

>  <SCORE.INTRA.norm>
-0.241009

>  <SCORE.RESTR>
0

>  <SCORE.RESTR.CAVITY>
0

>  <SCORE.RESTR.norm>
0

>  <SCORE.SYSTEM>
0

>  <SCORE.SYSTEM.CONST>
0

>  <SCORE.SYSTEM.DIHEDRAL>
0

>  <SCORE.SYSTEM.SOLV>
0

>  <SCORE.SYSTEM.norm>
0

>  <SCORE.heavy>
23

>  <SCORE.norm>
-1.16654

>  <RMSD>
12.837

$$$$
1uui_lig
 OpenBabel11021811413D
libRbt.so/2013.1/901 2013/11/27
 23 24  0  0  0  0  0  0  0  0999 V2000
  -21.4944   -4.2491    6.7517 C   0  0  0  0  0  0  0  0  0  0  0  0
  -21.1519   -4.5813    3.8840 O   0  0  0  0  0  0  0  0  0  0  0  0
  -20.8844   -9.2417    7.1571 O   0  0  0  0  0  0  0  0  0  0  0  0
  -20.2641   -4.7188    2.7673 C   0  0  0  0  0  0  0  0  0  0  0  0
  -19.5192   -9.5174    7.4801 C   0  0  0  0  0  0  0  0  0  0  0  0
  -22.4801   -4.3642    7.8762 N   0  0  0  0  0  0  0  0  0  0  0  0
  -18.9193   -4.0792    3.1163 C   0  0  0  0  0  0  0  0  0  0  0  0
  -23.3581   -3.1648    7.9487 C   0  0  0  0  0  0  0  0  0  0  0  0
  -21.7834   -4.5479    9.1767 C   0  0  0  0  0  0  0  0  0  0  0  0
  -18.1500   -4.9763    4.0912 C   0  0  0  0  0  0  0  0  0  0  0  0
  -22.5541   -1.8779    8.2004 C   0  0  0  0  0  0  0  0  0  0  0  0
  -20.8451   -3.3696    9.4889 C   0  0  0  0  0  0  0  0  0  0  0  0
  -16.7466   -4.5154    4.1839 N   0  0  0  0  0  0  0  0  0  0  0  0
  -21.1585   -2.1662    8.6571 N   0  0  0  0  0  0  0  0  0  0  0  0
  -20.1787   -1.1657    8.5170 C   0  0  0  0  0  0  0  0  0  0  0  0
  -19.1293   -1.3325    7.6626 N   0  0  0  0  0  0  0  0  0  0  0  0
  -20.1825   -0.0693    9.3277 N   0  0  0  0  0  0  0  0  0  0  0  0
  -21.0890   -5.7497    4.7068 C   0  0  0  0  0  0  0  0  0  0  0  0
  -21.2500   -5.6369    6.1149 C   0  0  0  0  0  0  0  0  0  0  0  0
  -21.1822   -6.8011    6.9296 C   0  0  0  0  0  0  0  0  0  0  0  0
  -20.9541   -8.0724    6.3361 C   0  0  0  0  0  0  0  0  0  0  0  0
  -20.7950   -8.1819    4.9297 C   0  0  0  0  0  0  0  0  0  0  0  0
  -20.8614   -7.0206    4.1157 C   0  0  0  0  0  0  0  0  0  0  0  0
  2  4  1  0  0  0  0
  3  5  1  0  0  0  0
  4  7  1  0  0  0  0
  6  1  1  0  0  0  0
  7 10  1  0  0  0  0
  8  6  1  0  0  0  0
  8 11  1  0  0  0  0
  9  6  1  0  0  0  0
 10 13  1  0  0  0  0
 11 14  1  0  0  0  0
 12  9  1  0  0  0  0
 14 12  1  0  0  0  0
 14 15  1  0  0  0  0
 15 16  1  0  0  0  0
 15 17  1  0  0  0  0
 18  2  1  0  0  0  0
 18 23  2  0  0  0  0
 19  1  1  0  0  0  0
 19 18  1  0  0  0  0
 20 19  2  0  0  0  0
 21  3  1  0  0  0  0
 21 20  1  0  0  0  0
 22 21  2  0  0  0  0
 22 23  1  0  0  0  0
M  END
>  <CHROM.1>
-93.85718000,74.30560463,-144.44279893,167.27756021,-70.21895198,-113.78506794
47.62616743,174.78819218,146.45326514,141.76197578,-94.54155452,-20.59431954
-4.69891052,6.51356009,1.83552977,0.99855575,0.34585607

>  <Name>
1uui_lig

>  <RI>
0

>  <Rbt.Current_Directory>
/home/itssahil/PROJECTS/Mol_Feturizer/New_Systems/rnas/1uui

>  <Rbt.Executable>
rbdock ($Id: //depot/dev/client3/rdock/2013.1/src/exe/rbdock.cxx#4 $)

>  <Rbt.Library>
libRbt.so (2013.1, Build901 2013/11/27)

>  <Rbt.Parameter_File>
/export/apps/rDock/src/rDock_2013.1_src/data/scripts/dock_solv.prm

>  <Rbt.Receptor>
prm/blind_docking_40.prm

>  <SCORE>
-28.1343

>  <SCORE.INTER>
-25.4532

>  <SCORE.INTER.CONST>
1

>  <SCORE.INTER.POLAR>
-4.40082

>  <SCORE.INTER.ROT>
10

>  <SCORE.INTER.SOLV>
6.09997

>  <SCORE.INTER.VDW>
-14.5994

>  <SCORE.INTER.norm>
-1.10666

>  <SCORE.INTRA>
-3.05727

>  <SCORE.INTRA.DIHEDRAL>
-4.80149

>  <SCORE.INTRA.DIHEDRAL.0>
23.4151

>  <SCORE.INTRA.POLAR>
0

>  <SCORE.INTRA.POLAR.0>
0

>  <SCORE.INTRA.REPUL>
0

>  <SCORE.INTRA.REPUL.0>
0

>  <SCORE.INTRA.SOLV>
-0.0305173

>  <SCORE.INTRA.SOLV.lig_0>
-17.3568

>  <SCORE.INTRA.VDW>
-0.641264

>  <SCORE.INTRA.VDW.0>
1.0768

>  <SCORE.INTRA.norm>
-0.132925

>  <SCORE.RESTR>
0.376158

>  <SCORE.RESTR.CAVITY>
0.376158

>  <SCORE.RESTR.norm>
0.0163547

>  <SCORE.SYSTEM>
0

>  <SCORE.SYSTEM.CONST>
0

>  <SCORE.SYSTEM.DIHEDRAL>
0

>  <SCORE.SYSTEM.SOLV>
0

>  <SCORE.SYSTEM.norm>
0

>  <SCORE.heavy>
23

>  <SCORE.norm>
-1.22323

>  <RMSD>
12.840

$$$$
1uui_lig
 OpenBabel11021811413D
libRbt.so/2013.1/901 2013/11/27
 23 24  0  0  0  0  0  0  0  0999 V2000
  -18.5006   -5.3209    6.8105 C   0  0  0  0  0  0  0  0  0  0  0  0
  -18.2740   -6.0118    9.6253 O   0  0  0  0  0  0  0  0  0  0  0  0
  -22.1806   -2.1344    8.1393 O   0  0  0  0  0  0  0  0  0  0  0  0
  -18.8031   -7.3340    9.4648 C   0  0  0  0  0  0  0  0  0  0  0  0
  -23.4558   -2.7664    8.0024 C   0  0  0  0  0  0  0  0  0  0  0  0
  -18.9794   -4.9460    5.4395 N   0  0  0  0  0  0  0  0  0  0  0  0
  -17.6812   -8.2698    9.0125 C   0  0  0  0  0  0  0  0  0  0  0  0
  -20.2314   -5.6698    5.0886 C   0  0  0  0  0  0  0  0  0  0  0  0
  -17.9385   -5.2315    4.4169 C   0  0  0  0  0  0  0  0  0  0  0  0
  -16.5992   -8.3513   10.0940 C   0  0  0  0  0  0  0  0  0  0  0  0
  -20.0313   -7.1949    5.0814 C   0  0  0  0  0  0  0  0  0  0  0  0
  -17.5593   -6.7221    4.3943 C   0  0  0  0  0  0  0  0  0  0  0  0
  -15.4162   -9.0601    9.5568 N   0  0  0  0  0  0  0  0  0  0  0  0
  -18.5832   -7.5727    5.0771 N   0  0  0  0  0  0  0  0  0  0  0  0
  -18.2181   -8.8644    5.4998 C   0  0  0  0  0  0  0  0  0  0  0  0
  -17.2718   -9.5772    4.8251 N   0  0  0  0  0  0  0  0  0  0  0  0
  -18.8950   -9.4840    6.5085 N   0  0  0  0  0  0  0  0  0  0  0  0
  -19.2561   -5.0420    9.2496 C   0  0  0  0  0  0  0  0  0  0  0  0
  -19.4035   -4.6715    7.8849 C   0  0  0  0  0  0  0  0  0  0  0  0
  -20.3785   -3.7032    7.5166 C   0  0  0  0  0  0  0  0  0  0  0  0
  -21.2020   -3.1091    8.5112 C   0  0  0  0  0  0  0  0  0  0  0  0
  -21.0534   -3.4821    9.8729 C   0  0  0  0  0  0  0  0  0  0  0  0
  -20.0799   -4.4475   10.2417 C   0  0  0  0  0  0  0  0  0  0  0  0
  2  4  1  0  0  0  0
  3  5  1  0  0  0  0
  4  7  1  0  0  0  0
  6  1  1  0  0  0  0
  7 10  1  0  0  0  0
  8  6  1  0  0  0  0
  8 11  1  0  0  0  0
  9  6  1  0  0  0  0
 10 13  1  0  0  0  0
 11 14  1  0  0  0  0
 12  9  1  0  0  0  0
 14 12  1  0  0  0  0
 14 15  1  0  0  0  0
 15 16  1  0  0  0  0
 15 17  1  0  0  0  0
 18  2  1  0  0  0  0
 18 23  2  0  0  0  0
 19  1  1  0  0  0  0
 19 18  1  0  0  0  0
 20 19  2  0  0  0  0
 21  3  1  0  0  0  0
 21 20  1  0  0  0  0
 22 21  2  0  0  0  0
 22 23  1  0  0  0  0
M  END
>  <CHROM.1>
145.17187602,63.06001748,-73.55246496,-170.08848733,15.69542161,137.88617637
174.47662702,-146.02414592,-84.60100357,170.98158893,96.91427868,-19.08143180
-6.12087049,7.38489302,2.77088412,-0.88913151,1.39102996

>  <Name>
1uui_lig

>  <RI>
0

>  <Rbt.Current_Directory>
/home/itssahil/PROJECTS/Mol_Feturizer/New_Systems/rnas/1uui

>  <Rbt.Executable>
rbdock ($Id: //depot/dev/client3/rdock/2013.1/src/exe/rbdock.cxx#4 $)

>  <Rbt.Library>
libRbt.so (2013.1, Build901 2013/11/27)

>  <Rbt.Parameter_File>
/export/apps/rDock/src/rDock_2013.1_src/data/scripts/dock_solv.prm

>  <Rbt.Receptor>
prm/blind_docking_100.prm

>  <SCORE>
-18.3714

>  <SCORE.INTER>
-18.5275

>  <SCORE.INTER.CONST>
1

>  <SCORE.INTER.POLAR>
-2.58048

>  <SCORE.INTER.ROT>
10

>  <SCORE.INTER.SOLV>
7.46025

>  <SCORE.INTER.VDW>
-16.5035

>  <SCORE.INTER.norm>
-0.805542

>  <SCORE.INTRA>
-1.88156

>  <SCORE.INTRA.DIHEDRAL>
-1.28905

>  <SCORE.INTRA.DIHEDRAL.0>
23.4151

>  <SCORE.INTRA.POLAR>
0

>  <SCORE.INTRA.POLAR.0>
0

>  <SCORE.INTRA.REPUL>
0

>  <SCORE.INTRA.REPUL.0>
0

>  <SCORE.INTRA.SOLV>
0.669053

>  <SCORE.INTRA.SOLV.lig_0>
-17.3568

>  <SCORE.INTRA.VDW>
-1.57156

>  <SCORE.INTRA.VDW.0>
1.0768

>  <SCORE.INTRA.norm>
-0.0818069

>  <SCORE.RESTR>
2.03767

>  <SCORE.RESTR.CAVITY>
2.03767

>  <SCORE.RESTR.norm>
0.0885943

>  <SCORE.SYSTEM>
0

>  <SCORE.SYSTEM.CONST>
0

>  <SCORE.SYSTEM.DIHEDRAL>
0

>  <SCORE.SYSTEM.SOLV>
0

>  <SCORE.SYSTEM.norm>
0

>  <SCORE.heavy>
23

>  <SCORE.norm>
-0.798755

>  <RMSD>
12.908

$$$$
1uui_lig
 OpenBabel11021811413D
libRbt.so/2013.1/901 2013/11/27
 23 24  0  0  0  0  0  0  0  0999 V2000
  -19.7808   -5.6030    8.1970 C   0  0  0  0  0  0  0  0  0  0  0  0
  -21.2551   -7.2292    6.2909 O   0  0  0  0  0  0  0  0  0  0  0  0
  -17.4280   -3.5335    4.2418 O   0  0  0  0  0  0  0  0  0  0  0  0
  -20.8298   -8.5735    6.0337 C   0  0  0  0  0  0  0  0  0  0  0  0
  -16.3669   -4.2474    3.6028 C   0  0  0  0  0  0  0  0  0  0  0  0
  -19.9552   -4.2397    8.7974 N   0  0  0  0  0  0  0  0  0  0  0  0
  -19.7423   -8.9546    7.0394 C   0  0  0  0  0  0  0  0  0  0  0  0
  -19.6789   -4.2548   10.2596 C   0  0  0  0  0  0  0  0  0  0  0  0
  -21.3296   -3.7257    8.5578 C   0  0  0  0  0  0  0  0  0  0  0  0
  -18.3632   -8.8664    6.3779 C   0  0  0  0  0  0  0  0  0  0  0  0
  -20.6352   -5.1927   11.0159 C   0  0  0  0  0  0  0  0  0  0  0  0
  -22.3958   -4.6513    9.1683 C   0  0  0  0  0  0  0  0  0  0  0  0
  -18.2714   -9.8677    5.2919 N   0  0  0  0  0  0  0  0  0  0  0  0
  -21.8150   -5.5849   10.1829 N   0  0  0  0  0  0  0  0  0  0  0  0
  -22.5384   -6.7401   10.5330 C   0  0  0  0  0  0  0  0  0  0  0  0
  -23.3222   -6.7605   11.6485 N   0  0  0  0  0  0  0  0  0  0  0  0
  -22.3678   -7.9040    9.8431 N   0  0  0  0  0  0  0  0  0  0  0  0
  -20.2916   -6.3040    5.7793 C   0  0  0  0  0  0  0  0  0  0  0  0
  -19.5467   -5.4867    6.6729 C   0  0  0  0  0  0  0  0  0  0  0  0
  -18.5928   -4.5648    6.1592 C   0  0  0  0  0  0  0  0  0  0  0  0
  -18.3863   -4.4623    4.7566 C   0  0  0  0  0  0  0  0  0  0  0  0
  -19.1307   -5.2807    3.8670 C   0  0  0  0  0  0  0  0  0  0  0  0
  -20.0838   -6.2003    4.3784 C   0  0  0  0  0  0  0  0  0  0  0  0
  2  4  1  0  0  0  0
  3  5  1  0  0  0  0
  4  7  1  0  0  0  0
  6  1  1  0  0  0  0
  7 10  1  0  0  0  0
  8  6  1  0  0  0  0
  8 11  1  0  0  0  0
  9  6  1  0  0  0  0
 10 13  1  0  0  0  0
 11 14  1  0  0  0  0
 12  9  1  0  0  0  0
 14 12  1  0  0  0  0
 14 15  1  0  0  0  0
 15 16  1  0  0  0  0
 15 17  1  0  0  0  0
 18  2  1  0  0  0  0
 18 23  2  0  0  0  0
 19  1  1  0  0  0  0
 19 18  1  0  0  0  0
 20 19  2  0  0  0  0
 21  3  1  0  0  0  0
 21 20  1  0  0  0  0
 22 21  2  0  0  0  0
 22 23  1  0  0  0  0
M  END
>  <CHROM.1>
77.34390432,-101.62026675,-158.89249035,-64.32712445,87.18520028,71.04085804
94.79764698,52.34976715,-113.55516805,-131.72111235,115.08063899,-20.09931796
-6.06098081,7.36573730,-2.90387862,-0.96980783,-2.80255140

>  <Name>
1uui_lig

>  <RI>
0

>  <Rbt.Current_Directory>
/home/itssahil/PROJECTS/Mol_Feturizer/New_Systems/rnas/1uui

>  <Rbt.Executable>
rbdock ($Id: //depot/dev/client3/rdock/2013.1/src/exe/rbdock.cxx#4 $)

>  <Rbt.Library>
libRbt.so (2013.1, Build901 2013/11/27)

>  <Rbt.Parameter_File>
/export/apps/rDock/src/rDock_2013.1_src/data/scripts/dock_solv.prm

>  <Rbt.Receptor>
prm/blind_docking_40.prm

>  <SCORE>
-21.3585

>  <SCORE.INTER>
-17.698

>  <SCORE.INTER.CONST>
1

>  <SCORE.INTER.POLAR>
-2.57082

>  <SCORE.INTER.ROT>
10

>  <SCORE.INTER.SOLV>
5.99789

>  <SCORE.INTER.VDW>
-15.4952

>  <SCORE.INTER.norm>
-0.769476

>  <SCORE.INTRA>
-3.6605

>  <SCORE.INTRA.DIHEDRAL>
-2.79088

>  <SCORE.INTRA.DIHEDRAL.0>
23.4151

>  <SCORE.INTRA.POLAR>
0

>  <SCORE.INTRA.POLAR.0>
0

>  <SCORE.INTRA.REPUL>
0.0706117

>  <SCORE.INTRA.REPUL.0>
0

>  <SCORE.INTRA.SOLV>
0.540383

>  <SCORE.INTRA.SOLV.lig_0>
-17.3568

>  <SCORE.INTRA.VDW>
-2.88831

>  <SCORE.INTRA.VDW.0>
1.0768

>  <SCORE.INTRA.norm>
-0.159152

>  <SCORE.RESTR>
0

>  <SCORE.RESTR.CAVITY>
0

>  <SCORE.RESTR.norm>
0

>  <SCORE.SYSTEM>
0

>  <SCORE.SYSTEM.CONST>
0

>  <SCORE.SYSTEM.DIHEDRAL>
0

>  <SCORE.SYSTEM.SOLV>
0

>  <SCORE.SYSTEM.norm>
0

>  <SCORE.heavy>
23

>  <SCORE.norm>
-0.928628

>  <RMSD>
12.914

$$$$
1uui_lig
 OpenBabel11021811413D
libRbt.so/2013.1/901 2013/11/27
 23 24  0  0  0  0  0  0  0  0999 V2000
  -20.2940   -5.5463    7.4047 C   0  0  0  0  0  0  0  0  0  0  0  0
  -17.7262   -6.7202    8.0972 O   0  0  0  0  0  0  0  0  0  0  0  0
  -20.0576   -8.1687    3.1002 O   0  0  0  0  0  0  0  0  0  0  0  0
  -17.6243   -7.8751    8.9397 C   0  0  0  0  0  0  0  0  0  0  0  0
  -20.6727   -9.4539    3.2180 C   0  0  0  0  0  0  0  0  0  0  0  0
  -20.6573   -6.2344    8.6869 N   0  0  0  0  0  0  0  0  0  0  0  0
  -16.3155   -8.6043    8.6321 C   0  0  0  0  0  0  0  0  0  0  0  0
  -22.1137   -6.1157    8.9690 C   0  0  0  0  0  0  0  0  0  0  0  0
  -19.8842   -5.6755    9.8273 C   0  0  0  0  0  0  0  0  0  0  0  0
  -16.4175  -10.0696    9.0676 C   0  0  0  0  0  0  0  0  0  0  0  0
  -22.5528   -4.6492    9.1188 C   0  0  0  0  0  0  0  0  0  0  0  0
  -20.1470   -4.1706   10.0073 C   0  0  0  0  0  0  0  0  0  0  0  0
  -17.1896  -10.8315    8.0607 N   0  0  0  0  0  0  0  0  0  0  0  0
  -21.3870   -3.7278    9.2970 N   0  0  0  0  0  0  0  0  0  0  0  0
  -21.5557   -2.3588    9.0180 C   0  0  0  0  0  0  0  0  0  0  0  0
  -22.4749   -1.9423    8.1011 N   0  0  0  0  0  0  0  0  0  0  0  0
  -20.7149   -1.4299    9.5562 N   0  0  0  0  0  0  0  0  0  0  0  0
  -18.3113   -7.0792    6.8422 C   0  0  0  0  0  0  0  0  0  0  0  0
  -19.5663   -6.5311    6.4605 C   0  0  0  0  0  0  0  0  0  0  0  0
  -20.1464   -6.8946    5.2134 C   0  0  0  0  0  0  0  0  0  0  0  0
  -19.4719   -7.8029    4.3529 C   0  0  0  0  0  0  0  0  0  0  0  0
  -18.2183   -8.3475    4.7364 C   0  0  0  0  0  0  0  0  0  0  0  0
  -17.6389   -7.9864    5.9812 C   0  0  0  0  0  0  0  0  0  0  0  0
  2  4  1  0  0  0  0
  3  5  1  0  0  0  0
  4  7  1  0  0  0  0
  6  1  1  0  0  0  0
  7 10  1  0  0  0  0
  8  6  1  0  0  0  0
  8 11  1  0  0  0  0
  9  6  1  0  0  0  0
 10 13  1  0  0  0  0
 11 14  1  0  0  0  0
 12  9  1  0  0  0  0
 14 12  1  0  0  0  0
 14 15  1  0  0  0  0
 15 16  1  0  0  0  0
 15 17  1  0  0  0  0
 18  2  1  0  0  0  0
 18 23  2  0  0  0  0
 19  1  1  0  0  0  0
 19 18  1  0  0  0  0
 20 19  2  0  0  0  0
 21  3  1  0  0  0  0
 21 20  1  0  0  0  0
 22 21  2  0  0  0  0
 22 23  1  0  0  0  0
M  END
>  <CHROM.1>
86.25076525,-157.64290048,-125.03978027,78.39586204,-177.28245479,-28.21589810
-37.53179931,-118.79703106,116.26053406,-63.50882244,-100.85251615,-19.62732521
-6.43670927,7.53912908,2.28497683,-0.81057025,1.02783545

>  <Name>
1uui_lig

>  <RI>
0

>  <Rbt.Current_Directory>
/home/itssahil/PROJECTS/Mol_Feturizer/New_Systems/rnas/1uui

>  <Rbt.Executable>
rbdock ($Id: //depot/dev/client3/rdock/2013.1/src/exe/rbdock.cxx#4 $)

>  <Rbt.Library>
libRbt.so (2013.1, Build901 2013/11/27)

>  <Rbt.Parameter_File>
/export/apps/rDock/src/rDock_2013.1_src/data/scripts/dock_solv.prm

>  <Rbt.Receptor>
prm/blind_docking_60.prm

>  <SCORE>
-29.3624

>  <SCORE.INTER>
-27.4615

>  <SCORE.INTER.CONST>
1

>  <SCORE.INTER.POLAR>
-3.79628

>  <SCORE.INTER.ROT>
10

>  <SCORE.INTER.SOLV>
6.21482

>  <SCORE.INTER.VDW>
-17.9917

>  <SCORE.INTER.norm>
-1.19398

>  <SCORE.INTRA>
-2.19981

>  <SCORE.INTRA.DIHEDRAL>
-1.21629

>  <SCORE.INTRA.DIHEDRAL.0>
23.4151

>  <SCORE.INTRA.POLAR>
0

>  <SCORE.INTRA.POLAR.0>
0

>  <SCORE.INTRA.REPUL>
0

>  <SCORE.INTRA.REPUL.0>
0

>  <SCORE.INTRA.SOLV>
0.553655

>  <SCORE.INTRA.SOLV.lig_0>
-17.3568

>  <SCORE.INTRA.VDW>
-1.8685

>  <SCORE.INTRA.VDW.0>
1.0768

>  <SCORE.INTRA.norm>
-0.095644

>  <SCORE.RESTR>
0.298919

>  <SCORE.RESTR.CAVITY>
0.298919

>  <SCORE.RESTR.norm>
0.0129965

>  <SCORE.SYSTEM>
0

>  <SCORE.SYSTEM.CONST>
0

>  <SCORE.SYSTEM.DIHEDRAL>
0

>  <SCORE.SYSTEM.SOLV>
0

>  <SCORE.SYSTEM.norm>
0

>  <SCORE.heavy>
23

>  <SCORE.norm>
-1.27663

>  <RMSD>
12.963

$$$$
1uui_lig
 OpenBabel11021811413D
libRbt.so/2013.1/901 2013/11/27
 23 24  0  0  0  0  0  0  0  0999 V2000
  -19.5389   -4.8060    8.5111 C   0  0  0  0  0  0  0  0  0  0  0  0
  -19.4677   -1.9008    8.4341 O   0  0  0  0  0  0  0  0  0  0  0  0
  -17.3303   -4.7379    3.9747 O   0  0  0  0  0  0  0  0  0  0  0  0
  -20.7702   -1.3930    8.1184 C   0  0  0  0  0  0  0  0  0  0  0  0
  -18.1553   -4.5195    2.8276 C   0  0  0  0  0  0  0  0  0  0  0  0
  -18.9533   -6.1851    8.5794 N   0  0  0  0  0  0  0  0  0  0  0  0
  -21.7693   -2.5510    8.1086 C   0  0  0  0  0  0  0  0  0  0  0  0
  -19.6671   -7.1200    7.6676 C   0  0  0  0  0  0  0  0  0  0  0  0
  -19.0006   -6.7142    9.9680 C   0  0  0  0  0  0  0  0  0  0  0  0
  -23.1846   -2.0194    7.8608 C   0  0  0  0  0  0  0  0  0  0  0  0
  -21.1547   -7.2568    8.0337 C   0  0  0  0  0  0  0  0  0  0  0  0
  -20.4425   -6.7859   10.4990 C   0  0  0  0  0  0  0  0  0  0  0  0
  -24.1582   -3.1263    7.9938 N   0  0  0  0  0  0  0  0  0  0  0  0
  -21.4513   -6.7142    9.3965 N   0  0  0  0  0  0  0  0  0  0  0  0
  -22.7769   -6.3633    9.7131 C   0  0  0  0  0  0  0  0  0  0  0  0
  -23.0999   -5.0787   10.0362 N   0  0  0  0  0  0  0  0  0  0  0  0
  -23.7402   -7.3208    9.8352 N   0  0  0  0  0  0  0  0  0  0  0  0
  -18.9355   -2.6147    7.3146 C   0  0  0  0  0  0  0  0  0  0  0  0
  -18.9478   -4.0364    7.3073 C   0  0  0  0  0  0  0  0  0  0  0  0
  -18.4132   -4.7421    6.1937 C   0  0  0  0  0  0  0  0  0  0  0  0
  -17.8690   -4.0266    5.0927 C   0  0  0  0  0  0  0  0  0  0  0  0
  -17.8594   -2.6070    5.1024 C   0  0  0  0  0  0  0  0  0  0  0  0
  -18.3916   -1.9016    6.2137 C   0  0  0  0  0  0  0  0  0  0  0  0
  2  4  1  0  0  0  0
  3  5  1  0  0  0  0
  4  7  1  0  0  0  0
  6  1  1  0  0  0  0
  7 10  1  0  0  0  0
  8  6  1  0  0  0  0
  8 11  1  0  0  0  0
  9  6  1  0  0  0  0
 10 13  1  0  0  0  0
 11 14  1  0  0  0  0
 12  9  1  0  0  0  0
 14 12  1  0  0  0  0
 14 15  1  0  0  0  0
 15 16  1  0  0  0  0
 15 17  1  0  0  0  0
 18  2  1  0  0  0  0
 18 23  2  0  0  0  0
 19  1  1  0  0  0  0
 19 18  1  0  0  0  0
 20 19  2  0  0  0  0
 21  3  1  0  0  0  0
 21 20  1  0  0  0  0
 22 21  2  0  0  0  0
 22 23  1  0  0  0  0
M  END
>  <CHROM.1>
73.52512191,176.42882602,-83.07060857,-174.13138796,-175.94522466,-118.38131521
23.17615199,-17.21543371,-102.35263923,-156.09997057,112.36560446,-20.30687024
-4.56930611,7.71818672,-2.51975614,0.63493323,-0.38675341

>  <Name>
1uui_lig

>  <RI>
0

>  <Rbt.Current_Directory>
/home/itssahil/PROJECTS/Mol_Feturizer/New_Systems/rnas/1uui

>  <Rbt.Executable>
rbdock ($Id: //depot/dev/client3/rdock/2013.1/src/exe/rbdock.cxx#4 $)

>  <Rbt.Library>
libRbt.so (2013.1, Build901 2013/11/27)

>  <Rbt.Parameter_File>
/export/apps/rDock/src/rDock_2013.1_src/data/scripts/dock_solv.prm

>  <Rbt.Receptor>
prm/blind_docking_40.prm

>  <SCORE>
-41.4632

>  <SCORE.INTER>
-33.4777

>  <SCORE.INTER.CONST>
1

>  <SCORE.INTER.POLAR>
-4.70214

>  <SCORE.INTER.ROT>
10

>  <SCORE.INTER.SOLV>
8.4762

>  <SCORE.INTER.VDW>
-19.7367

>  <SCORE.INTER.norm>
-1.45555

>  <SCORE.INTRA>
-7.98552

>  <SCORE.INTRA.DIHEDRAL>
-8.11885

>  <SCORE.INTRA.DIHEDRAL.0>
23.4151

>  <SCORE.INTRA.POLAR>
-0.706927

>  <SCORE.INTRA.POLAR.0>
0

>  <SCORE.INTRA.REPUL>
0

>  <SCORE.INTRA.REPUL.0>
0

>  <SCORE.INTRA.SOLV>
1.11327

>  <SCORE.INTRA.SOLV.lig_0>
-17.3568

>  <SCORE.INTRA.VDW>
-2.07918

>  <SCORE.INTRA.VDW.0>
1.0768

>  <SCORE.INTRA.norm>
-0.347197

>  <SCORE.RESTR>
0

>  <SCORE.RESTR.CAVITY>
0

>  <SCORE.RESTR.norm>
0

>  <SCORE.SYSTEM>
0

>  <SCORE.SYSTEM.CONST>
0

>  <SCORE.SYSTEM.DIHEDRAL>
0

>  <SCORE.SYSTEM.SOLV>
0

>  <SCORE.SYSTEM.norm>
0

>  <SCORE.heavy>
23

>  <SCORE.norm>
-1.80275

>  <RMSD>
12.972

$$$$
1uui_lig
 OpenBabel11021811413D
libRbt.so/2013.1/901 2013/11/27
 23 24  0  0  0  0  0  0  0  0999 V2000
  -19.8363   -5.5714    7.6674 C   0  0  0  0  0  0  0  0  0  0  0  0
  -17.1937   -6.7737    7.5180 O   0  0  0  0  0  0  0  0  0  0  0  0
  -21.0112   -8.2273    3.5409 O   0  0  0  0  0  0  0  0  0  0  0  0
  -17.4294   -7.5225    8.7171 C   0  0  0  0  0  0  0  0  0  0  0  0
  -21.8959   -9.2175    4.0710 C   0  0  0  0  0  0  0  0  0  0  0  0
  -20.3214   -6.3099    8.8794 N   0  0  0  0  0  0  0  0  0  0  0  0
  -16.3773   -8.6266    8.8318 C   0  0  0  0  0  0  0  0  0  0  0  0
  -21.8075   -6.3003    8.9581 C   0  0  0  0  0  0  0  0  0  0  0  0
  -19.7553   -5.7213   10.1218 C   0  0  0  0  0  0  0  0  0  0  0  0
  -16.6401   -9.7114    7.7824 C   0  0  0  0  0  0  0  0  0  0  0  0
  -22.3687   -4.8719    9.0611 C   0  0  0  0  0  0  0  0  0  0  0  0
  -20.1494   -4.2428   10.2797 C   0  0  0  0  0  0  0  0  0  0  0  0
  -17.9558  -10.3388    8.0394 N   0  0  0  0  0  0  0  0  0  0  0  0
  -21.3089   -3.8743    9.4091 N   0  0  0  0  0  0  0  0  0  0  0  0
  -21.5370   -2.5152    9.1239 C   0  0  0  0  0  0  0  0  0  0  0  0
  -22.5261   -2.1398    8.2639 N   0  0  0  0  0  0  0  0  0  0  0  0
  -20.6916   -1.5540    9.5939 N   0  0  0  0  0  0  0  0  0  0  0  0
  -18.1520   -7.1340    6.5190 C   0  0  0  0  0  0  0  0  0  0  0  0
  -19.4576   -6.5724    6.5512 C   0  0  0  0  0  0  0  0  0  0  0  0
  -20.4087   -6.9371    5.5581 C   0  0  0  0  0  0  0  0  0  0  0  0
  -20.0530   -7.8603    4.5375 C   0  0  0  0  0  0  0  0  0  0  0  0
  -18.7481   -8.4184    4.5073 C   0  0  0  0  0  0  0  0  0  0  0  0
  -17.7984   -8.0560    5.4985 C   0  0  0  0  0  0  0  0  0  0  0  0
  2  4  1  0  0  0  0
  3  5  1  0  0  0  0
  4  7  1  0  0  0  0
  6  1  1  0  0  0  0
  7 10  1  0  0  0  0
  8  6  1  0  0  0  0
  8 11  1  0  0  0  0
  9  6  1  0  0  0  0
 10 13  1  0  0  0  0
 11 14  1  0  0  0  0
 12  9  1  0  0  0  0
 14 12  1  0  0  0  0
 14 15  1  0  0  0  0
 15 16  1  0  0  0  0
 15 17  1  0  0  0  0
 18  2  1  0  0  0  0
 18 23  2  0  0  0  0
 19  1  1  0  0  0  0
 19 18  1  0  0  0  0
 20 19  2  0  0  0  0
 21  3  1  0  0  0  0
 21 20  1  0  0  0  0
 22 21  2  0  0  0  0
 22 23  1  0  0  0  0
M  END
>  <CHROM.1>
104.30745723,-71.16982112,-100.68167293,-62.68553370,61.23434429,-16.15939274
79.57885974,53.03563291,80.45672399,-86.48004464,-80.27860391,-19.73463675
-6.44409921,7.56117324,2.10677609,-0.66428222,0.87381251

>  <Name>
1uui_lig

>  <RI>
0

>  <Rbt.Current_Directory>
/home/itssahil/PROJECTS/Mol_Feturizer/New_Systems/rnas/1uui

>  <Rbt.Executable>
rbdock ($Id: //depot/dev/client3/rdock/2013.1/src/exe/rbdock.cxx#4 $)

>  <Rbt.Library>
libRbt.so (2013.1, Build901 2013/11/27)

>  <Rbt.Parameter_File>
/export/apps/rDock/src/rDock_2013.1_src/data/scripts/dock_solv.prm

>  <Rbt.Receptor>
prm/blind_docking_60.prm

>  <SCORE>
-23.7565

>  <SCORE.INTER>
-21.7493

>  <SCORE.INTER.CONST>
1

>  <SCORE.INTER.POLAR>
-2.91945

>  <SCORE.INTER.ROT>
10

>  <SCORE.INTER.SOLV>
5.71308

>  <SCORE.INTER.VDW>
-16.939

>  <SCORE.INTER.norm>
-0.94562

>  <SCORE.INTRA>
-2.15699

>  <SCORE.INTRA.DIHEDRAL>
-0.327823

>  <SCORE.INTRA.DIHEDRAL.0>
23.4151

>  <SCORE.INTRA.POLAR>
0

>  <SCORE.INTRA.POLAR.0>
0

>  <SCORE.INTRA.REPUL>
0

>  <SCORE.INTRA.REPUL.0>
0

>  <SCORE.INTRA.SOLV>
0.702591

>  <SCORE.INTRA.SOLV.lig_0>
-17.3568

>  <SCORE.INTRA.VDW>
-2.34437

>  <SCORE.INTRA.VDW.0>
1.0768

>  <SCORE.INTRA.norm>
-0.0937822

>  <SCORE.RESTR>
0.149701

>  <SCORE.RESTR.CAVITY>
0.149701

>  <SCORE.RESTR.norm>
0.00650873

>  <SCORE.SYSTEM>
0

>  <SCORE.SYSTEM.CONST>
0

>  <SCORE.SYSTEM.DIHEDRAL>
0

>  <SCORE.SYSTEM.SOLV>
0

>  <SCORE.SYSTEM.norm>
0

>  <SCORE.heavy>
23

>  <SCORE.norm>
-1.03289

>  <RMSD>
13.031

$$$$
1uui_lig
 OpenBabel11021811413D
libRbt.so/2013.1/901 2013/11/27
 23 24  0  0  0  0  0  0  0  0999 V2000
  -19.5043   -5.4462    8.0035 C   0  0  0  0  0  0  0  0  0  0  0  0
  -19.9521   -6.9521    5.5575 O   0  0  0  0  0  0  0  0  0  0  0  0
  -15.7855   -8.6968    9.0358 O   0  0  0  0  0  0  0  0  0  0  0  0
  -19.3905   -6.2723    4.4277 C   0  0  0  0  0  0  0  0  0  0  0  0
  -16.3456   -9.1172   10.2822 C   0  0  0  0  0  0  0  0  0  0  0  0
  -19.6913   -5.3657    9.4895 N   0  0  0  0  0  0  0  0  0  0  0  0
  -18.9340   -4.8779    4.8596 C   0  0  0  0  0  0  0  0  0  0  0  0
  -20.9273   -6.0758    9.9170 C   0  0  0  0  0  0  0  0  0  0  0  0
  -19.7511   -3.9505    9.9414 C   0  0  0  0  0  0  0  0  0  0  0  0
  -18.0128   -4.2751    3.7941 C   0  0  0  0  0  0  0  0  0  0  0  0
  -22.1892   -5.4664    9.2826 C   0  0  0  0  0  0  0  0  0  0  0  0
  -20.9122   -3.1914    9.2769 C   0  0  0  0  0  0  0  0  0  0  0  0
  -16.7141   -4.9848    3.8053 N   0  0  0  0  0  0  0  0  0  0  0  0
  -21.9249   -4.1201    8.6850 N   0  0  0  0  0  0  0  0  0  0  0  0
  -22.8131   -3.6235    7.7129 C   0  0  0  0  0  0  0  0  0  0  0  0
  -24.0716   -3.2269    8.0561 N   0  0  0  0  0  0  0  0  0  0  0  0
  -22.4844   -3.6532    6.3898 N   0  0  0  0  0  0  0  0  0  0  0  0
  -18.9097   -7.3903    6.4336 C   0  0  0  0  0  0  0  0  0  0  0  0
  -18.6530   -6.6852    7.6412 C   0  0  0  0  0  0  0  0  0  0  0  0
  -17.6123   -7.1220    8.5072 C   0  0  0  0  0  0  0  0  0  0  0  0
  -16.8326   -8.2601    8.1647 C   0  0  0  0  0  0  0  0  0  0  0  0
  -17.0923   -8.9628    6.9589 C   0  0  0  0  0  0  0  0  0  0  0  0
  -18.1299   -8.5271    6.0933 C   0  0  0  0  0  0  0  0  0  0  0  0
  2  4  1  0  0  0  0
  3  5  1  0  0  0  0
  4  7  1  0  0  0  0
  6  1  1  0  0  0  0
  7 10  1  0  0  0  0
  8  6  1  0  0  0  0
  8 11  1  0  0  0  0
  9  6  1  0  0  0  0
 10 13  1  0  0  0  0
 11 14  1  0  0  0  0
 12  9  1  0  0  0  0
 14 12  1  0  0  0  0
 14 15  1  0  0  0  0
 15 16  1  0  0  0  0
 15 17  1  0  0  0  0
 18  2  1  0  0  0  0
 18 23  2  0  0  0  0
 19  1  1  0  0  0  0
 19 18  1  0  0  0  0
 20 19  2  0  0  0  0
 21  3  1  0  0  0  0
 21 20  1  0  0  0  0
 22 21  2  0  0  0  0
 22 23  1  0  0  0  0
M  END
>  <CHROM.1>
-75.44391021,165.22027955,-91.15496999,-71.08463882,-165.97038274,70.74992612
163.55304210,145.91354854,103.66868655,145.90001657,64.14244042,-19.44060598
-5.87557651,7.46974968,3.06861245,0.66180860,-1.27585671

>  <Name>
1uui_lig

>  <RI>
0

>  <Rbt.Current_Directory>
/home/itssahil/PROJECTS/Mol_Feturizer/New_Systems/rnas/1uui

>  <Rbt.Executable>
rbdock ($Id: //depot/dev/client3/rdock/2013.1/src/exe/rbdock.cxx#4 $)

>  <Rbt.Library>
libRbt.so (2013.1, Build901 2013/11/27)

>  <Rbt.Parameter_File>
/export/apps/rDock/src/rDock_2013.1_src/data/scripts/dock_solv.prm

>  <Rbt.Receptor>
prm/blind_docking_40.prm

>  <SCORE>
-28.1525

>  <SCORE.INTER>
-23.4375

>  <SCORE.INTER.CONST>
1

>  <SCORE.INTER.POLAR>
-2.47178

>  <SCORE.INTER.ROT>
10

>  <SCORE.INTER.SOLV>
6.5866

>  <SCORE.INTER.VDW>
-19.8479

>  <SCORE.INTER.norm>
-1.01902

>  <SCORE.INTRA>
-4.71501

>  <SCORE.INTRA.DIHEDRAL>
-5.77825

>  <SCORE.INTRA.DIHEDRAL.0>
23.4151

>  <SCORE.INTRA.POLAR>
0

>  <SCORE.INTRA.POLAR.0>
0

>  <SCORE.INTRA.REPUL>
0

>  <SCORE.INTRA.REPUL.0>
0

>  <SCORE.INTRA.SOLV>
0.182854

>  <SCORE.INTRA.SOLV.lig_0>
-17.3568

>  <SCORE.INTRA.VDW>
-1.91731

>  <SCORE.INTRA.VDW.0>
1.0768

>  <SCORE.INTRA.norm>
-0.205

>  <SCORE.RESTR>
0

>  <SCORE.RESTR.CAVITY>
0

>  <SCORE.RESTR.norm>
0

>  <SCORE.SYSTEM>
0

>  <SCORE.SYSTEM.CONST>
0

>  <SCORE.SYSTEM.DIHEDRAL>
0

>  <SCORE.SYSTEM.SOLV>
0

>  <SCORE.SYSTEM.norm>
0

>  <SCORE.heavy>
23

>  <SCORE.norm>
-1.22402

>  <RMSD>
13.044

$$$$
1uui_lig
 OpenBabel11021811413D
libRbt.so/2013.1/901 2013/11/27
 23 24  0  0  0  0  0  0  0  0999 V2000
  -20.6616   -6.0227    7.7644 C   0  0  0  0  0  0  0  0  0  0  0  0
  -20.3958   -6.7494    4.9621 O   0  0  0  0  0  0  0  0  0  0  0  0
  -17.2087   -9.5653    8.7592 O   0  0  0  0  0  0  0  0  0  0  0  0
  -19.7859   -5.4901    4.6518 C   0  0  0  0  0  0  0  0  0  0  0  0
  -16.0903   -8.7571    9.1332 C   0  0  0  0  0  0  0  0  0  0  0  0
  -21.0713   -6.2574    9.1880 N   0  0  0  0  0  0  0  0  0  0  0  0
  -18.3965   -5.7392    4.0631 C   0  0  0  0  0  0  0  0  0  0  0  0
  -22.4838   -5.8489    9.4172 C   0  0  0  0  0  0  0  0  0  0  0  0
  -20.1835   -5.5192   10.1248 C   0  0  0  0  0  0  0  0  0  0  0  0
  -17.7161   -4.4043    3.7436 C   0  0  0  0  0  0  0  0  0  0  0  0
  -22.7019   -4.3519    9.1392 C   0  0  0  0  0  0  0  0  0  0  0  0
  -20.2205   -4.0034    9.8657 C   0  0  0  0  0  0  0  0  0  0  0  0
  -16.2845   -4.6376    3.4494 N   0  0  0  0  0  0  0  0  0  0  0  0
  -21.4101   -3.6013    9.0523 N   0  0  0  0  0  0  0  0  0  0  0  0
  -21.3909   -2.3583    8.3927 C   0  0  0  0  0  0  0  0  0  0  0  0
  -20.2629   -1.5925    8.3812 N   0  0  0  0  0  0  0  0  0  0  0  0
  -22.5337   -1.8315    7.8673 N   0  0  0  0  0  0  0  0  0  0  0  0
  -19.6000   -7.4572    5.9171 C   0  0  0  0  0  0  0  0  0  0  0  0
  -19.6952   -7.1365    7.2988 C   0  0  0  0  0  0  0  0  0  0  0  0
  -18.8984   -7.8400    8.2444 C   0  0  0  0  0  0  0  0  0  0  0  0
  -18.0104   -8.8602    7.8072 C   0  0  0  0  0  0  0  0  0  0  0  0
  -17.9186   -9.1791    6.4269 C   0  0  0  0  0  0  0  0  0  0  0  0
  -18.7124   -8.4768    5.4823 C   0  0  0  0  0  0  0  0  0  0  0  0
  2  4  1  0  0  0  0
  3  5  1  0  0  0  0
  4  7  1  0  0  0  0
  6  1  1  0  0  0  0
  7 10  1  0  0  0  0
  8  6  1  0  0  0  0
  8 11  1  0  0  0  0
  9  6  1  0  0  0  0
 10 13  1  0  0  0  0
 11 14  1  0  0  0  0
 12  9  1  0  0  0  0
 14 12  1  0  0  0  0
 14 15  1  0  0  0  0
 15 16  1  0  0  0  0
 15 17  1  0  0  0  0
 18  2  1  0  0  0  0
 18 23  2  0  0  0  0
 19  1  1  0  0  0  0
 19 18  1  0  0  0  0
 20 19  2  0  0  0  0
 21  3  1  0  0  0  0
 21 20  1  0  0  0  0
 22 21  2  0  0  0  0
 22 23  1  0  0  0  0
M  END
>  <CHROM.1>
60.21903946,-179.11984850,-144.51832344,168.10100315,-68.46045385,174.79110521
-23.80137451,143.47262422,80.76630400,154.36238508,-78.40052213,-19.62168518
-5.82545652,7.33994337,2.94100938,0.90996182,-0.82155310

>  <Name>
1uui_lig

>  <RI>
0

>  <Rbt.Current_Directory>
/home/itssahil/PROJECTS/Mol_Feturizer/New_Systems/rnas/1uui

>  <Rbt.Executable>
rbdock ($Id: //depot/dev/client3/rdock/2013.1/src/exe/rbdock.cxx#4 $)

>  <Rbt.Library>
libRbt.so (2013.1, Build901 2013/11/27)

>  <Rbt.Parameter_File>
/export/apps/rDock/src/rDock_2013.1_src/data/scripts/dock_solv.prm

>  <Rbt.Receptor>
prm/blind_docking_40.prm

>  <SCORE>
-20.8332

>  <SCORE.INTER>
-17.9234

>  <SCORE.INTER.CONST>
1

>  <SCORE.INTER.POLAR>
-2.26932

>  <SCORE.INTER.ROT>
10

>  <SCORE.INTER.SOLV>
3.93407

>  <SCORE.INTER.VDW>
-15.9626

>  <SCORE.INTER.norm>
-0.77928

>  <SCORE.INTRA>
-2.90979

>  <SCORE.INTRA.DIHEDRAL>
-6.8859

>  <SCORE.INTRA.DIHEDRAL.0>
23.4151

>  <SCORE.INTRA.POLAR>
0

>  <SCORE.INTRA.POLAR.0>
0

>  <SCORE.INTRA.REPUL>
0

>  <SCORE.INTRA.REPUL.0>
0

>  <SCORE.INTRA.SOLV>
-0.11013

>  <SCORE.INTRA.SOLV.lig_0>
-17.3568

>  <SCORE.INTRA.VDW>
0.588221

>  <SCORE.INTRA.VDW.0>
1.0768

>  <SCORE.INTRA.norm>
-0.126513

>  <SCORE.RESTR>
0

>  <SCORE.RESTR.CAVITY>
0

>  <SCORE.RESTR.norm>
0

>  <SCORE.SYSTEM>
0

>  <SCORE.SYSTEM.CONST>
0

>  <SCORE.SYSTEM.DIHEDRAL>
0

>  <SCORE.SYSTEM.SOLV>
0

>  <SCORE.SYSTEM.norm>
0

>  <SCORE.heavy>
23

>  <SCORE.norm>
-0.905793

>  <RMSD>
13.051

$$$$
1uui_lig
 OpenBabel11021811413D
libRbt.so/2013.1/901 2013/11/27
 23 24  0  0  0  0  0  0  0  0999 V2000
  -19.4220   -6.6465    8.5314 C   0  0  0  0  0  0  0  0  0  0  0  0
  -17.6080   -6.7914    6.2644 O   0  0  0  0  0  0  0  0  0  0  0  0
  -19.9266   -1.7323    7.5026 O   0  0  0  0  0  0  0  0  0  0  0  0
  -18.5938   -7.6494    5.6760 C   0  0  0  0  0  0  0  0  0  0  0  0
  -21.3517   -1.8469    7.4921 C   0  0  0  0  0  0  0  0  0  0  0  0
  -18.6864   -6.5935    9.8374 N   0  0  0  0  0  0  0  0  0  0  0  0
  -17.8941   -8.8495    5.0363 C   0  0  0  0  0  0  0  0  0  0  0  0
  -18.9644   -7.8003   10.6625 C   0  0  0  0  0  0  0  0  0  0  0  0
  -19.0527   -5.3735   10.6042 C   0  0  0  0  0  0  0  0  0  0  0  0
  -18.9347   -9.8488    4.5209 C   0  0  0  0  0  0  0  0  0  0  0  0
  -20.4581   -7.9308   11.0057 C   0  0  0  0  0  0  0  0  0  0  0  0
  -20.5598   -5.3257   10.9081 C   0  0  0  0  0  0  0  0  0  0  0  0
  -18.2559  -10.9174    3.7542 N   0  0  0  0  0  0  0  0  0  0  0  0
  -21.2090   -6.6634   10.7424 N   0  0  0  0  0  0  0  0  0  0  0  0
  -22.6060   -6.7234   10.5834 C   0  0  0  0  0  0  0  0  0  0  0  0
  -23.4384   -6.4846   11.6366 N   0  0  0  0  0  0  0  0  0  0  0  0
  -23.1554   -7.1519    9.4112 N   0  0  0  0  0  0  0  0  0  0  0  0
  -18.1879   -5.5223    6.5793 C   0  0  0  0  0  0  0  0  0  0  0  0
  -19.0815   -5.4024    7.6785 C   0  0  0  0  0  0  0  0  0  0  0  0
  -19.6594   -4.1391    7.9851 C   0  0  0  0  0  0  0  0  0  0  0  0
  -19.3432   -3.0014    7.1939 C   0  0  0  0  0  0  0  0  0  0  0  0
  -18.4496   -3.1241    6.0977 C   0  0  0  0  0  0  0  0  0  0  0  0
  -17.8731   -4.3846    5.7901 C   0  0  0  0  0  0  0  0  0  0  0  0
  2  4  1  0  0  0  0
  3  5  1  0  0  0  0
  4  7  1  0  0  0  0
  6  1  1  0  0  0  0
  7 10  1  0  0  0  0
  8  6  1  0  0  0  0
  8 11  1  0  0  0  0
  9  6  1  0  0  0  0
 10 13  1  0  0  0  0
 11 14  1  0  0  0  0
 12  9  1  0  0  0  0
 14 12  1  0  0  0  0
 14 15  1  0  0  0  0
 15 16  1  0  0  0  0
 15 17  1  0  0  0  0
 18  2  1  0  0  0  0
 18 23  2  0  0  0  0
 19  1  1  0  0  0  0
 19 18  1  0  0  0  0
 20 19  2  0  0  0  0
 21  3  1  0  0  0  0
 21 20  1  0  0  0  0
 22 21  2  0  0  0  0
 22 23  1  0  0  0  0
M  END
>  <CHROM.1>
166.07712901,174.49492260,-178.30341219,172.83885756,163.99261500,95.51596789
-178.99119861,-86.82247146,73.16167487,103.99482218,-56.69517501,-19.71927254
-6.15052433,8.06446788,2.67632772,1.02241117,0.01127480

>  <Name>
1uui_lig

>  <RI>
0

>  <Rbt.Current_Directory>
/home/itssahil/PROJECTS/Mol_Feturizer/New_Systems/rnas/1uui

>  <Rbt.Executable>
rbdock ($Id: //depot/dev/client3/rdock/2013.1/src/exe/rbdock.cxx#4 $)

>  <Rbt.Library>
libRbt.so (2013.1, Build901 2013/11/27)

>  <Rbt.Parameter_File>
/export/apps/rDock/src/rDock_2013.1_src/data/scripts/dock_solv.prm

>  <Rbt.Receptor>
prm/blind_docking_40.prm

>  <SCORE>
-32.0411

>  <SCORE.INTER>
-26.5799

>  <SCORE.INTER.CONST>
1

>  <SCORE.INTER.POLAR>
-3.88445

>  <SCORE.INTER.ROT>
10

>  <SCORE.INTER.SOLV>
8.26606

>  <SCORE.INTER.VDW>
-17.7938

>  <SCORE.INTER.norm>
-1.15565

>  <SCORE.INTRA>
-5.57727

>  <SCORE.INTRA.DIHEDRAL>
-9.434

>  <SCORE.INTRA.DIHEDRAL.0>
23.4151

>  <SCORE.INTRA.POLAR>
0

>  <SCORE.INTRA.POLAR.0>
0

>  <SCORE.INTRA.REPUL>
0

>  <SCORE.INTRA.REPUL.0>
0

>  <SCORE.INTRA.SOLV>
0.0378225

>  <SCORE.INTRA.SOLV.lig_0>
-17.3568

>  <SCORE.INTRA.VDW>
-0.879175

>  <SCORE.INTRA.VDW.0>
1.0768

>  <SCORE.INTRA.norm>
-0.24249

>  <SCORE.RESTR>
0.116049

>  <SCORE.RESTR.CAVITY>
0.116049

>  <SCORE.RESTR.norm>
0.00504563

>  <SCORE.SYSTEM>
0

>  <SCORE.SYSTEM.CONST>
0

>  <SCORE.SYSTEM.DIHEDRAL>
0

>  <SCORE.SYSTEM.SOLV>
0

>  <SCORE.SYSTEM.norm>
0

>  <SCORE.heavy>
23

>  <SCORE.norm>
-1.39309

>  <RMSD>
13.074

$$$$
1uui_lig
 OpenBabel11021811413D
libRbt.so/2013.1/901 2013/11/27
 23 24  0  0  0  0  0  0  0  0999 V2000
  -18.6660   -5.0348    7.3133 C   0  0  0  0  0  0  0  0  0  0  0  0
  -17.9262   -6.7354    9.5520 O   0  0  0  0  0  0  0  0  0  0  0  0
  -17.6111   -8.9477    4.3070 O   0  0  0  0  0  0  0  0  0  0  0  0
  -19.1563   -7.1286   10.1734 C   0  0  0  0  0  0  0  0  0  0  0  0
  -18.7025   -9.8490    4.1054 C   0  0  0  0  0  0  0  0  0  0  0  0
  -19.3016   -4.5168    6.0574 N   0  0  0  0  0  0  0  0  0  0  0  0
  -19.2109   -6.5464   11.5866 C   0  0  0  0  0  0  0  0  0  0  0  0
  -19.1957   -3.0349    5.9708 C   0  0  0  0  0  0  0  0  0  0  0  0
  -20.7314   -4.9170    5.9816 C   0  0  0  0  0  0  0  0  0  0  0  0
  -20.5165   -6.9597   12.2732 C   0  0  0  0  0  0  0  0  0  0  0  0
  -19.9082   -2.3380    7.1424 C   0  0  0  0  0  0  0  0  0  0  0  0
  -21.5358   -4.3767    7.1763 C   0  0  0  0  0  0  0  0  0  0  0  0
  -20.5451   -6.4147   13.6489 N   0  0  0  0  0  0  0  0  0  0  0  0
  -20.8197   -3.2677    7.8803 N   0  0  0  0  0  0  0  0  0  0  0  0
  -21.2021   -2.9412    9.1947 C   0  0  0  0  0  0  0  0  0  0  0  0
  -21.1650   -3.8781   10.1846 N   0  0  0  0  0  0  0  0  0  0  0  0
  -21.7445   -1.7229    9.4795 N   0  0  0  0  0  0  0  0  0  0  0  0
  -17.8442   -7.2871    8.2348 C   0  0  0  0  0  0  0  0  0  0  0  0
  -18.1964   -6.4938    7.1088 C   0  0  0  0  0  0  0  0  0  0  0  0
  -18.1177   -7.0483    5.8010 C   0  0  0  0  0  0  0  0  0  0  0  0
  -17.6879   -8.3913    5.6225 C   0  0  0  0  0  0  0  0  0  0  0  0
  -17.3357   -9.1805    6.7488 C   0  0  0  0  0  0  0  0  0  0  0  0
  -17.4150   -8.6286    8.0545 C   0  0  0  0  0  0  0  0  0  0  0  0
  2  4  1  0  0  0  0
  3  5  1  0  0  0  0
  4  7  1  0  0  0  0
  6  1  1  0  0  0  0
  7 10  1  0  0  0  0
  8  6  1  0  0  0  0
  8 11  1  0  0  0  0
  9  6  1  0  0  0  0
 10 13  1  0  0  0  0
 11 14  1  0  0  0  0
 12  9  1  0  0  0  0
 14 12  1  0  0  0  0
 14 15  1  0  0  0  0
 15 16  1  0  0  0  0
 15 17  1  0  0  0  0
 18  2  1  0  0  0  0
 18 23  2  0  0  0  0
 19  1  1  0  0  0  0
 19 18  1  0  0  0  0
 20 19  2  0  0  0  0
 21  3  1  0  0  0  0
 21 20  1  0  0  0  0
 22 21  2  0  0  0  0
 22 23  1  0  0  0  0
M  END
>  <CHROM.1>
179.09633327,-179.74549065,-153.85823921,178.81775922,60.36368606,-133.87142395
124.74580991,55.40833295,97.95097771,-165.81296488,-105.32472740,-19.38000417
-5.85457984,8.05525973,0.44017145,1.10130265,-1.22442592

>  <Name>
1uui_lig

>  <RI>
0

>  <Rbt.Current_Directory>
/home/itssahil/PROJECTS/Mol_Feturizer/New_Systems/rnas/1uui

>  <Rbt.Executable>
rbdock ($Id: //depot/dev/client3/rdock/2013.1/src/exe/rbdock.cxx#4 $)

>  <Rbt.Library>
libRbt.so (2013.1, Build901 2013/11/27)

>  <Rbt.Parameter_File>
/export/apps/rDock/src/rDock_2013.1_src/data/scripts/dock_solv.prm

>  <Rbt.Receptor>
prm/blind_docking_40.prm

>  <SCORE>
-24.511

>  <SCORE.INTER>
-18.0348

>  <SCORE.INTER.CONST>
1

>  <SCORE.INTER.POLAR>
-2.72077

>  <SCORE.INTER.ROT>
10

>  <SCORE.INTER.SOLV>
7.0118

>  <SCORE.INTER.VDW>
-15.5579

>  <SCORE.INTER.norm>
-0.784124

>  <SCORE.INTRA>
-6.49198

>  <SCORE.INTRA.DIHEDRAL>
-8.52529

>  <SCORE.INTRA.DIHEDRAL.0>
23.4151

>  <SCORE.INTRA.POLAR>
0

>  <SCORE.INTRA.POLAR.0>
0

>  <SCORE.INTRA.REPUL>
0

>  <SCORE.INTRA.REPUL.0>
0

>  <SCORE.INTRA.SOLV>
0.391356

>  <SCORE.INTRA.SOLV.lig_0>
-17.3568

>  <SCORE.INTRA.VDW>
-2.42501

>  <SCORE.INTRA.VDW.0>
1.0768

>  <SCORE.INTRA.norm>
-0.28226

>  <SCORE.RESTR>
0.0158572

>  <SCORE.RESTR.CAVITY>
0.0158572

>  <SCORE.RESTR.norm>
0.000689444

>  <SCORE.SYSTEM>
0

>  <SCORE.SYSTEM.CONST>
0

>  <SCORE.SYSTEM.DIHEDRAL>
0

>  <SCORE.SYSTEM.SOLV>
0

>  <SCORE.SYSTEM.norm>
0

>  <SCORE.heavy>
23

>  <SCORE.norm>
-1.06569

>  <RMSD>
13.105

$$$$
1uui_lig
 OpenBabel11021811413D
libRbt.so/2013.1/901 2013/11/27
 23 24  0  0  0  0  0  0  0  0999 V2000
  -21.2090   -5.8528    7.2543 C   0  0  0  0  0  0  0  0  0  0  0  0
  -19.5565   -8.1504    7.9185 O   0  0  0  0  0  0  0  0  0  0  0  0
  -18.3495   -5.2938    3.1345 O   0  0  0  0  0  0  0  0  0  0  0  0
  -19.0456   -7.4466    9.0577 C   0  0  0  0  0  0  0  0  0  0  0  0
  -19.5609   -4.8067    2.5520 C   0  0  0  0  0  0  0  0  0  0  0  0
  -20.9834   -4.4514    7.7388 N   0  0  0  0  0  0  0  0  0  0  0  0
  -17.5552   -7.7549    9.2086 C   0  0  0  0  0  0  0  0  0  0  0  0
  -20.1586   -4.4351    8.9775 C   0  0  0  0  0  0  0  0  0  0  0  0
  -22.2762   -3.7633    7.9949 C   0  0  0  0  0  0  0  0  0  0  0  0
  -17.3270   -8.6514   10.4298 C   0  0  0  0  0  0  0  0  0  0  0  0
  -20.8375   -5.1936   10.1305 C   0  0  0  0  0  0  0  0  0  0  0  0
  -23.1114   -4.5014    9.0550 C   0  0  0  0  0  0  0  0  0  0  0  0
  -15.8788   -8.9132   10.5865 N   0  0  0  0  0  0  0  0  0  0  0  0
  -22.2849   -5.4572    9.8559 N   0  0  0  0  0  0  0  0  0  0  0  0
  -22.9345   -6.4826   10.5681 C   0  0  0  0  0  0  0  0  0  0  0  0
  -22.6047   -6.7482   11.8641 N   0  0  0  0  0  0  0  0  0  0  0  0
  -23.8096   -7.3193    9.9406 N   0  0  0  0  0  0  0  0  0  0  0  0
  -19.2531   -7.4298    6.7207 C   0  0  0  0  0  0  0  0  0  0  0  0
  -20.0340   -6.2997    6.3540 C   0  0  0  0  0  0  0  0  0  0  0  0
  -19.7313   -5.5889    5.1595 C   0  0  0  0  0  0  0  0  0  0  0  0
  -18.6512   -6.0086    4.3362 C   0  0  0  0  0  0  0  0  0  0  0  0
  -17.8726   -7.1367    4.7057 C   0  0  0  0  0  0  0  0  0  0  0  0
  -18.1744   -7.8475    5.8971 C   0  0  0  0  0  0  0  0  0  0  0  0
  2  4  1  0  0  0  0
  3  5  1  0  0  0  0
  4  7  1  0  0  0  0
  6  1  1  0  0  0  0
  7 10  1  0  0  0  0
  8  6  1  0  0  0  0
  8 11  1  0  0  0  0
  9  6  1  0  0  0  0
 10 13  1  0  0  0  0
 11 14  1  0  0  0  0
 12  9  1  0  0  0  0
 14 12  1  0  0  0  0
 14 15  1  0  0  0  0
 15 16  1  0  0  0  0
 15 17  1  0  0  0  0
 18  2  1  0  0  0  0
 18 23  2  0  0  0  0
 19  1  1  0  0  0  0
 19 18  1  0  0  0  0
 20 19  2  0  0  0  0
 21  3  1  0  0  0  0
 21 20  1  0  0  0  0
 22 21  2  0  0  0  0
 22 23  1  0  0  0  0
M  END
>  <CHROM.1>
-81.29238451,-108.89467910,-86.19696219,-178.50796196,102.28785873,34.52740215
97.41293671,-94.64799378,-78.59359796,119.87537867,-34.24633976,-20.05516207
-6.34574265,7.87315394,0.98497833,0.51658035,-1.21639666

>  <Name>
1uui_lig

>  <RI>
0

>  <Rbt.Current_Directory>
/home/itssahil/PROJECTS/Mol_Feturizer/New_Systems/rnas/1uui

>  <Rbt.Executable>
rbdock ($Id: //depot/dev/client3/rdock/2013.1/src/exe/rbdock.cxx#4 $)

>  <Rbt.Library>
libRbt.so (2013.1, Build901 2013/11/27)

>  <Rbt.Parameter_File>
/export/apps/rDock/src/rDock_2013.1_src/data/scripts/dock_solv.prm

>  <Rbt.Receptor>
prm/blind_docking_40.prm

>  <SCORE>
-22.9025

>  <SCORE.INTER>
-23.7828

>  <SCORE.INTER.CONST>
1

>  <SCORE.INTER.POLAR>
-2.8985

>  <SCORE.INTER.ROT>
10

>  <SCORE.INTER.SOLV>
7.1908

>  <SCORE.INTER.VDW>
-18.8571

>  <SCORE.INTER.norm>
-1.03403

>  <SCORE.INTRA>
0.880346

>  <SCORE.INTRA.DIHEDRAL>
-1.54494

>  <SCORE.INTRA.DIHEDRAL.0>
23.4151

>  <SCORE.INTRA.POLAR>
0

>  <SCORE.INTRA.POLAR.0>
0

>  <SCORE.INTRA.REPUL>
0

>  <SCORE.INTRA.REPUL.0>
0

>  <SCORE.INTRA.SOLV>
0.214627

>  <SCORE.INTRA.SOLV.lig_0>
-17.3568

>  <SCORE.INTRA.VDW>
1.5455

>  <SCORE.INTRA.VDW.0>
1.0768

>  <SCORE.INTRA.norm>
0.0382759

>  <SCORE.RESTR>
0

>  <SCORE.RESTR.CAVITY>
0

>  <SCORE.RESTR.norm>
0

>  <SCORE.SYSTEM>
0

>  <SCORE.SYSTEM.CONST>
0

>  <SCORE.SYSTEM.DIHEDRAL>
0

>  <SCORE.SYSTEM.SOLV>
0

>  <SCORE.SYSTEM.norm>
0

>  <SCORE.heavy>
23

>  <SCORE.norm>
-0.995759

>  <RMSD>
13.106

$$$$
1uui_lig
 OpenBabel11021811413D
libRbt.so/2013.1/901 2013/11/27
 23 24  0  0  0  0  0  0  0  0999 V2000
  -20.0469   -6.5242    5.9243 C   0  0  0  0  0  0  0  0  0  0  0  0
  -18.1619   -5.6613    7.9623 O   0  0  0  0  0  0  0  0  0  0  0  0
  -23.3141   -3.2211    7.8933 O   0  0  0  0  0  0  0  0  0  0  0  0
  -18.2184   -6.9175    8.6499 C   0  0  0  0  0  0  0  0  0  0  0  0
  -24.1641   -3.8683    8.8434 C   0  0  0  0  0  0  0  0  0  0  0  0
  -19.5071   -5.8814    4.6814 N   0  0  0  0  0  0  0  0  0  0  0  0
  -16.8768   -7.6346    8.4919 C   0  0  0  0  0  0  0  0  0  0  0  0
  -20.0679   -6.5169    3.4582 C   0  0  0  0  0  0  0  0  0  0  0  0
  -18.0229   -5.9594    4.6447 C   0  0  0  0  0  0  0  0  0  0  0  0
  -16.7763   -8.7854    9.4982 C   0  0  0  0  0  0  0  0  0  0  0  0
  -19.7099   -8.0102    3.3703 C   0  0  0  0  0  0  0  0  0  0  0  0
  -17.5305   -7.4163    4.6756 C   0  0  0  0  0  0  0  0  0  0  0  0
  -15.3956   -9.3185    9.5026 N   0  0  0  0  0  0  0  0  0  0  0  0
  -18.6150   -8.3836    4.3197 N   0  0  0  0  0  0  0  0  0  0  0  0
  -18.4637   -9.7347    4.6830 C   0  0  0  0  0  0  0  0  0  0  0  0
  -18.6782  -10.7290    3.7750 N   0  0  0  0  0  0  0  0  0  0  0  0
  -18.2319  -10.0849    5.9804 N   0  0  0  0  0  0  0  0  0  0  0  0
  -19.4566   -5.0532    7.9455 C   0  0  0  0  0  0  0  0  0  0  0  0
  -20.4118   -5.4422    6.9670 C   0  0  0  0  0  0  0  0  0  0  0  0
  -21.6966   -4.8314    6.9514 C   0  0  0  0  0  0  0  0  0  0  0  0
  -22.0224   -3.8355    7.9117 C   0  0  0  0  0  0  0  0  0  0  0  0
  -21.0668   -3.4501    8.8883 C   0  0  0  0  0  0  0  0  0  0  0  0
  -19.7840   -4.0582    8.9042 C   0  0  0  0  0  0  0  0  0  0  0  0
  2  4  1  0  0  0  0
  3  5  1  0  0  0  0
  4  7  1  0  0  0  0
  6  1  1  0  0  0  0
  7 10  1  0  0  0  0
  8  6  1  0  0  0  0
  8 11  1  0  0  0  0
  9  6  1  0  0  0  0
 10 13  1  0  0  0  0
 11 14  1  0  0  0  0
 12  9  1  0  0  0  0
 14 12  1  0  0  0  0
 14 15  1  0  0  0  0
 15 16  1  0  0  0  0
 15 17  1  0  0  0  0
 18  2  1  0  0  0  0
 18 23  2  0  0  0  0
 19  1  1  0  0  0  0
 19 18  1  0  0  0  0
 20 19  2  0  0  0  0
 21  3  1  0  0  0  0
 21 20  1  0  0  0  0
 22 21  2  0  0  0  0
 22 23  1  0  0  0  0
M  END
>  <CHROM.1>
172.38567236,165.33888467,-136.94973995,-170.14964349,-167.64616593,36.91390590
-162.96819278,-38.66234408,-82.41264164,-92.83795919,97.13090196,-19.34800678
-6.66242121,6.68731213,2.49661470,-0.70717179,1.12783870

>  <Name>
1uui_lig

>  <RI>
0

>  <Rbt.Current_Directory>
/home/itssahil/PROJECTS/Mol_Feturizer/New_Systems/rnas/1uui

>  <Rbt.Executable>
rbdock ($Id: //depot/dev/client3/rdock/2013.1/src/exe/rbdock.cxx#4 $)

>  <Rbt.Library>
libRbt.so (2013.1, Build901 2013/11/27)

>  <Rbt.Parameter_File>
/export/apps/rDock/src/rDock_2013.1_src/data/scripts/dock_solv.prm

>  <Rbt.Receptor>
prm/blind_docking_60.prm

>  <SCORE>
-24.4897

>  <SCORE.INTER>
-18.6981

>  <SCORE.INTER.CONST>
1

>  <SCORE.INTER.POLAR>
-2.23914

>  <SCORE.INTER.ROT>
10

>  <SCORE.INTER.SOLV>
7.43656

>  <SCORE.INTER.VDW>
-17.7471

>  <SCORE.INTER.norm>
-0.812962

>  <SCORE.INTRA>
-6.38947

>  <SCORE.INTRA.DIHEDRAL>
-5.09226

>  <SCORE.INTRA.DIHEDRAL.0>
23.4151

>  <SCORE.INTRA.POLAR>
0

>  <SCORE.INTRA.POLAR.0>
0

>  <SCORE.INTRA.REPUL>
0

>  <SCORE.INTRA.REPUL.0>
0

>  <SCORE.INTRA.SOLV>
0.493746

>  <SCORE.INTRA.SOLV.lig_0>
-17.3568

>  <SCORE.INTRA.VDW>
-4.09022

>  <SCORE.INTRA.VDW.0>
1.0768

>  <SCORE.INTRA.norm>
-0.277803

>  <SCORE.RESTR>
0.597863

>  <SCORE.RESTR.CAVITY>
0.597863

>  <SCORE.RESTR.norm>
0.025994

>  <SCORE.SYSTEM>
0

>  <SCORE.SYSTEM.CONST>
0

>  <SCORE.SYSTEM.DIHEDRAL>
0

>  <SCORE.SYSTEM.SOLV>
0

>  <SCORE.SYSTEM.norm>
0

>  <SCORE.heavy>
23

>  <SCORE.norm>
-1.06477

>  <RMSD>
13.132

$$$$
1uui_lig
 OpenBabel11021811413D
libRbt.so/2013.1/901 2013/11/27
 23 24  0  0  0  0  0  0  0  0999 V2000
  -19.6921   -5.8114    7.8050 C   0  0  0  0  0  0  0  0  0  0  0  0
  -19.8009   -3.1380    8.9419 O   0  0  0  0  0  0  0  0  0  0  0  0
  -17.3345   -3.7658    3.8403 O   0  0  0  0  0  0  0  0  0  0  0  0
  -21.1463   -2.6692    8.7862 C   0  0  0  0  0  0  0  0  0  0  0  0
  -18.2651   -3.4190    2.8118 C   0  0  0  0  0  0  0  0  0  0  0  0
  -18.7051   -6.3237    8.8114 N   0  0  0  0  0  0  0  0  0  0  0  0
  -22.0555   -3.8568    8.4663 C   0  0  0  0  0  0  0  0  0  0  0  0
  -18.7323   -7.8098    8.8856 C   0  0  0  0  0  0  0  0  0  0  0  0
  -18.9759   -5.7549   10.1581 C   0  0  0  0  0  0  0  0  0  0  0  0
  -23.5080   -3.5117    8.8100 C   0  0  0  0  0  0  0  0  0  0  0  0
  -20.1112   -8.3389    9.3152 C   0  0  0  0  0  0  0  0  0  0  0  0
  -20.3868   -6.1162   10.6532 C   0  0  0  0  0  0  0  0  0  0  0  0
  -24.2779   -3.3158    7.5612 N   0  0  0  0  0  0  0  0  0  0  0  0
  -20.9750   -7.2594    9.8881 N   0  0  0  0  0  0  0  0  0  0  0  0
  -22.3684   -7.4538    9.9251 C   0  0  0  0  0  0  0  0  0  0  0  0
  -23.2222   -6.4434    9.5949 N   0  0  0  0  0  0  0  0  0  0  0  0
  -22.8971   -8.6095   10.4193 N   0  0  0  0  0  0  0  0  0  0  0  0
  -19.1860   -3.2973    7.6603 C   0  0  0  0  0  0  0  0  0  0  0  0
  -19.1086   -4.5858    7.0643 C   0  0  0  0  0  0  0  0  0  0  0  0
  -18.4921   -4.7401    5.7915 C   0  0  0  0  0  0  0  0  0  0  0  0
  -17.9557   -3.6085    5.1191 C   0  0  0  0  0  0  0  0  0  0  0  0
  -18.0356   -2.3230    5.7163 C   0  0  0  0  0  0  0  0  0  0  0  0
  -18.6497   -2.1680    6.9869 C   0  0  0  0  0  0  0  0  0  0  0  0
  2  4  1  0  0  0  0
  3  5  1  0  0  0  0
  4  7  1  0  0  0  0
  6  1  1  0  0  0  0
  7 10  1  0  0  0  0
  8  6  1  0  0  0  0
  8 11  1  0  0  0  0
  9  6  1  0  0  0  0
 10 13  1  0  0  0  0
 11 14  1  0  0  0  0
 12  9  1  0  0  0  0
 14 12  1  0  0  0  0
 14 15  1  0  0  0  0
 15 16  1  0  0  0  0
 15 17  1  0  0  0  0
 18  2  1  0  0  0  0
 18 23  2  0  0  0  0
 19  1  1  0  0  0  0
 19 18  1  0  0  0  0
 20 19  2  0  0  0  0
 21  3  1  0  0  0  0
 21 20  1  0  0  0  0
 22 21  2  0  0  0  0
 22 23  1  0  0  0  0
M  END
>  <CHROM.1>
81.56146551,158.72032305,-142.85785428,107.66698666,21.59850910,-137.69115672
70.28661078,96.64556308,-99.24148480,-82.46968138,98.52370465,-20.25023069
-4.99731810,7.97837523,-2.19858481,0.46325745,-0.61244001

>  <Name>
1uui_lig

>  <RI>
0

>  <Rbt.Current_Directory>
/home/itssahil/PROJECTS/Mol_Feturizer/New_Systems/rnas/1uui

>  <Rbt.Executable>
rbdock ($Id: //depot/dev/client3/rdock/2013.1/src/exe/rbdock.cxx#4 $)

>  <Rbt.Library>
libRbt.so (2013.1, Build901 2013/11/27)

>  <Rbt.Parameter_File>
/export/apps/rDock/src/rDock_2013.1_src/data/scripts/dock_solv.prm

>  <Rbt.Receptor>
prm/blind_docking_40.prm

>  <SCORE>
-28.9972

>  <SCORE.INTER>
-28.1967

>  <SCORE.INTER.CONST>
1

>  <SCORE.INTER.POLAR>
-4.21251

>  <SCORE.INTER.ROT>
10

>  <SCORE.INTER.SOLV>
8.26116

>  <SCORE.INTER.VDW>
-17.7765

>  <SCORE.INTER.norm>
-1.22594

>  <SCORE.INTRA>
-0.810027

>  <SCORE.INTRA.DIHEDRAL>
3.84477

>  <SCORE.INTRA.DIHEDRAL.0>
23.4151

>  <SCORE.INTRA.POLAR>
0

>  <SCORE.INTRA.POLAR.0>
0

>  <SCORE.INTRA.REPUL>
0

>  <SCORE.INTRA.REPUL.0>
0

>  <SCORE.INTRA.SOLV>
1.07661

>  <SCORE.INTRA.SOLV.lig_0>
-17.3568

>  <SCORE.INTRA.VDW>
-3.27072

>  <SCORE.INTRA.VDW.0>
1.0768

>  <SCORE.INTRA.norm>
-0.0352186

>  <SCORE.RESTR>
0.00954684

>  <SCORE.RESTR.CAVITY>
0.00954684

>  <SCORE.RESTR.norm>
0.00041508

>  <SCORE.SYSTEM>
0

>  <SCORE.SYSTEM.CONST>
0

>  <SCORE.SYSTEM.DIHEDRAL>
0

>  <SCORE.SYSTEM.SOLV>
0

>  <SCORE.SYSTEM.norm>
0

>  <SCORE.heavy>
23

>  <SCORE.norm>
-1.26075

>  <RMSD>
13.199

$$$$
1uui_lig
 OpenBabel11021811413D
libRbt.so/2013.1/901 2013/11/27
 23 24  0  0  0  0  0  0  0  0999 V2000
  -19.1215   -6.0054    8.4535 C   0  0  0  0  0  0  0  0  0  0  0  0
  -16.8585   -7.7667    8.9311 O   0  0  0  0  0  0  0  0  0  0  0  0
  -19.7635   -8.4192    4.0691 O   0  0  0  0  0  0  0  0  0  0  0  0
  -16.7664   -9.0227    9.6153 C   0  0  0  0  0  0  0  0  0  0  0  0
  -20.5695   -9.5972    4.1520 C   0  0  0  0  0  0  0  0  0  0  0  0
  -20.0653   -6.5874    9.4634 N   0  0  0  0  0  0  0  0  0  0  0  0
  -15.8965   -8.8504   10.8614 C   0  0  0  0  0  0  0  0  0  0  0  0
  -21.4818   -6.4105    9.0427 C   0  0  0  0  0  0  0  0  0  0  0  0
  -19.8635   -5.9660   10.7990 C   0  0  0  0  0  0  0  0  0  0  0  0
  -16.7092   -8.1912   11.9803 C   0  0  0  0  0  0  0  0  0  0  0  0
  -21.8571   -4.9261    8.8962 C   0  0  0  0  0  0  0  0  0  0  0  0
  -20.0936   -4.4456   10.7578 C   0  0  0  0  0  0  0  0  0  0  0  0
  -15.8237   -7.9049   13.1311 N   0  0  0  0  0  0  0  0  0  0  0  0
  -20.8490   -4.0246    9.5370 N   0  0  0  0  0  0  0  0  0  0  0  0
  -20.7949   -2.6760    9.1384 C   0  0  0  0  0  0  0  0  0  0  0  0
  -19.7058   -2.1868    8.4799 N   0  0  0  0  0  0  0  0  0  0  0  0
  -21.7671   -1.7983    9.5181 N   0  0  0  0  0  0  0  0  0  0  0  0
  -17.5865   -7.9260    7.7101 C   0  0  0  0  0  0  0  0  0  0  0  0
  -18.7012   -7.0883    7.4328 C   0  0  0  0  0  0  0  0  0  0  0  0
  -19.4249   -7.2534    6.2192 C   0  0  0  0  0  0  0  0  0  0  0  0
  -19.0335   -8.2534    5.2880 C   0  0  0  0  0  0  0  0  0  0  0  0
  -17.9192   -9.0875    5.5672 C   0  0  0  0  0  0  0  0  0  0  0  0
  -17.1968   -8.9244    6.7785 C   0  0  0  0  0  0  0  0  0  0  0  0
  2  4  1  0  0  0  0
  3  5  1  0  0  0  0
  4  7  1  0  0  0  0
  6  1  1  0  0  0  0
  7 10  1  0  0  0  0
  8  6  1  0  0  0  0
  8 11  1  0  0  0  0
  9  6  1  0  0  0  0
 10 13  1  0  0  0  0
 11 14  1  0  0  0  0
 12  9  1  0  0  0  0
 14 12  1  0  0  0  0
 14 15  1  0  0  0  0
 15 16  1  0  0  0  0
 15 17  1  0  0  0  0
 18  2  1  0  0  0  0
 18 23  2  0  0  0  0
 19  1  1  0  0  0  0
 19 18  1  0  0  0  0
 20 19  2  0  0  0  0
 21  3  1  0  0  0  0
 21 20  1  0  0  0  0
 22 21  2  0  0  0  0
 22 23  1  0  0  0  0
M  END
>  <CHROM.1>
175.78631350,78.69028509,-92.00863071,-174.31782643,-166.46859359,-113.56226999
-113.06526169,115.40547008,126.90974863,-87.36324603,-105.60660376,-19.03787652
-6.62134604,8.58095582,2.25793725,-0.82602645,0.98801843

>  <Name>
1uui_lig

>  <RI>
0

>  <Rbt.Current_Directory>
/home/itssahil/PROJECTS/Mol_Feturizer/New_Systems/rnas/1uui

>  <Rbt.Executable>
rbdock ($Id: //depot/dev/client3/rdock/2013.1/src/exe/rbdock.cxx#4 $)

>  <Rbt.Library>
libRbt.so (2013.1, Build901 2013/11/27)

>  <Rbt.Parameter_File>
/export/apps/rDock/src/rDock_2013.1_src/data/scripts/dock_solv.prm

>  <Rbt.Receptor>
prm/blind_docking_100.prm

>  <SCORE>
-28.9422

>  <SCORE.INTER>
-22.478

>  <SCORE.INTER.CONST>
1

>  <SCORE.INTER.POLAR>
-2.20721

>  <SCORE.INTER.ROT>
10

>  <SCORE.INTER.SOLV>
6.95416

>  <SCORE.INTER.VDW>
-20.2127

>  <SCORE.INTER.norm>
-0.977304

>  <SCORE.INTRA>
-6.55774

>  <SCORE.INTRA.DIHEDRAL>
-7.70125

>  <SCORE.INTRA.DIHEDRAL.0>
23.4151

>  <SCORE.INTRA.POLAR>
0

>  <SCORE.INTRA.POLAR.0>
0

>  <SCORE.INTRA.REPUL>
0

>  <SCORE.INTRA.REPUL.0>
0

>  <SCORE.INTRA.SOLV>
0.0857694

>  <SCORE.INTRA.SOLV.lig_0>
-17.3568

>  <SCORE.INTRA.VDW>
-2.75

>  <SCORE.INTRA.VDW.0>
1.0768

>  <SCORE.INTRA.norm>
-0.285119

>  <SCORE.RESTR>
0.0935119

>  <SCORE.RESTR.CAVITY>
0.0935119

>  <SCORE.RESTR.norm>
0.00406573

>  <SCORE.SYSTEM>
0

>  <SCORE.SYSTEM.CONST>
0

>  <SCORE.SYSTEM.DIHEDRAL>
0

>  <SCORE.SYSTEM.SOLV>
0

>  <SCORE.SYSTEM.norm>
0

>  <SCORE.heavy>
23

>  <SCORE.norm>
-1.25836

>  <RMSD>
13.213

$$$$
1uui_lig
 OpenBabel11021811413D
libRbt.so/2013.1/901 2013/11/27
 23 24  0  0  0  0  0  0  0  0999 V2000
  -20.1292   -6.3715    8.4364 C   0  0  0  0  0  0  0  0  0  0  0  0
  -17.3639   -7.0786    7.8845 O   0  0  0  0  0  0  0  0  0  0  0  0
  -20.7658   -5.9636    3.4474 O   0  0  0  0  0  0  0  0  0  0  0  0
  -17.4349   -8.4713    8.2152 C   0  0  0  0  0  0  0  0  0  0  0  0
  -20.4719   -4.6624    2.9330 C   0  0  0  0  0  0  0  0  0  0  0  0
  -20.0974   -4.9552    8.9290 N   0  0  0  0  0  0  0  0  0  0  0  0
  -17.6247   -8.6174    9.7258 C   0  0  0  0  0  0  0  0  0  0  0  0
  -19.7889   -4.8967   10.3837 C   0  0  0  0  0  0  0  0  0  0  0  0
  -21.3927   -4.2732    8.6690 C   0  0  0  0  0  0  0  0  0  0  0  0
  -16.5456   -9.5392   10.3025 C   0  0  0  0  0  0  0  0  0  0  0  0
  -20.8467   -5.6301   11.2258 C   0  0  0  0  0  0  0  0  0  0  0  0
  -22.5613   -4.9903    9.3665 C   0  0  0  0  0  0  0  0  0  0  0  0
  -15.3580   -8.7377   10.6735 N   0  0  0  0  0  0  0  0  0  0  0  0
  -22.0902   -5.9155   10.4436 N   0  0  0  0  0  0  0  0  0  0  0  0
  -22.9580   -6.9274   10.8948 C   0  0  0  0  0  0  0  0  0  0  0  0
  -23.8927   -7.4669   10.0617 N   0  0  0  0  0  0  0  0  0  0  0  0
  -22.9747   -7.2957   12.2077 N   0  0  0  0  0  0  0  0  0  0  0  0
  -18.2184   -6.7947    6.7730 C   0  0  0  0  0  0  0  0  0  0  0  0
  -19.5787   -6.4450    6.9933 C   0  0  0  0  0  0  0  0  0  0  0  0
  -20.4258   -6.1678    5.8845 C   0  0  0  0  0  0  0  0  0  0  0  0
  -19.9121   -6.2408    4.5612 C   0  0  0  0  0  0  0  0  0  0  0  0
  -18.5530   -6.5890    4.3445 C   0  0  0  0  0  0  0  0  0  0  0  0
  -17.7069   -6.8669    5.4503 C   0  0  0  0  0  0  0  0  0  0  0  0
  2  4  1  0  0  0  0
  3  5  1  0  0  0  0
  4  7  1  0  0  0  0
  6  1  1  0  0  0  0
  7 10  1  0  0  0  0
  8  6  1  0  0  0  0
  8 11  1  0  0  0  0
  9  6  1  0  0  0  0
 10 13  1  0  0  0  0
 11 14  1  0  0  0  0
 12  9  1  0  0  0  0
 14 12  1  0  0  0  0
 14 15  1  0  0  0  0
 15 16  1  0  0  0  0
 15 17  1  0  0  0  0
 18  2  1  0  0  0  0
 18 23  2  0  0  0  0
 19  1  1  0  0  0  0
 19 18  1  0  0  0  0
 20 19  2  0  0  0  0
 21  3  1  0  0  0  0
 21 20  1  0  0  0  0
 22 21  2  0  0  0  0
 22 23  1  0  0  0  0
M  END
>  <CHROM.1>
-132.54058099,-126.23752674,-144.86117064,88.84860769,-66.00475197,-162.48587271
85.11396487,-90.38617847,88.91824559,96.48312681,103.87907872,-19.85947598
-6.57877108,8.23808510,1.94966626,-0.40594494,1.81318642

>  <Name>
1uui_lig

>  <RI>
0

>  <Rbt.Current_Directory>
/home/itssahil/PROJECTS/Mol_Feturizer/New_Systems/rnas/1uui

>  <Rbt.Executable>
rbdock ($Id: //depot/dev/client3/rdock/2013.1/src/exe/rbdock.cxx#4 $)

>  <Rbt.Library>
libRbt.so (2013.1, Build901 2013/11/27)

>  <Rbt.Parameter_File>
/export/apps/rDock/src/rDock_2013.1_src/data/scripts/dock_solv.prm

>  <Rbt.Receptor>
prm/blind_docking_40.prm

>  <SCORE>
-26.2557

>  <SCORE.INTER>
-26.8367

>  <SCORE.INTER.CONST>
1

>  <SCORE.INTER.POLAR>
-3.39214

>  <SCORE.INTER.ROT>
10

>  <SCORE.INTER.SOLV>
8.69009

>  <SCORE.INTER.VDW>
-19.7473

>  <SCORE.INTER.norm>
-1.16681

>  <SCORE.INTRA>
0.507524

>  <SCORE.INTRA.DIHEDRAL>
7.02373

>  <SCORE.INTRA.DIHEDRAL.0>
23.4151

>  <SCORE.INTRA.POLAR>
0

>  <SCORE.INTRA.POLAR.0>
0

>  <SCORE.INTRA.REPUL>
0

>  <SCORE.INTRA.REPUL.0>
0

>  <SCORE.INTRA.SOLV>
0.158339

>  <SCORE.INTRA.SOLV.lig_0>
-17.3568

>  <SCORE.INTRA.VDW>
-3.08351

>  <SCORE.INTRA.VDW.0>
1.0768

>  <SCORE.INTRA.norm>
0.0220663

>  <SCORE.RESTR>
0.0734793

>  <SCORE.RESTR.CAVITY>
0.0734793

>  <SCORE.RESTR.norm>
0.00319475

>  <SCORE.SYSTEM>
0

>  <SCORE.SYSTEM.CONST>
0

>  <SCORE.SYSTEM.DIHEDRAL>
0

>  <SCORE.SYSTEM.SOLV>
0

>  <SCORE.SYSTEM.norm>
0

>  <SCORE.heavy>
23

>  <SCORE.norm>
-1.14155

>  <RMSD>
13.222

$$$$
1uui_lig
 OpenBabel11021811413D
libRbt.so/2013.1/901 2013/11/27
 23 24  0  0  0  0  0  0  0  0999 V2000
  -20.8592   -5.9564    8.1055 C   0  0  0  0  0  0  0  0  0  0  0  0
  -17.9616   -6.0358    8.3269 O   0  0  0  0  0  0  0  0  0  0  0  0
  -20.2593   -6.7417    3.1572 O   0  0  0  0  0  0  0  0  0  0  0  0
  -17.7710   -7.3105    8.9536 C   0  0  0  0  0  0  0  0  0  0  0  0
  -20.7883   -8.0655    3.0491 C   0  0  0  0  0  0  0  0  0  0  0  0
  -21.6910   -7.1780    8.3606 N   0  0  0  0  0  0  0  0  0  0  0  0
  -16.5116   -7.9646    8.3833 C   0  0  0  0  0  0  0  0  0  0  0  0
  -22.9680   -6.8288    9.0405 C   0  0  0  0  0  0  0  0  0  0  0  0
  -20.9451   -8.1661    9.1840 C   0  0  0  0  0  0  0  0  0  0  0  0
  -16.4179   -9.4193    8.8545 C   0  0  0  0  0  0  0  0  0  0  0  0
  -22.7290   -6.1675   10.4085 C   0  0  0  0  0  0  0  0  0  0  0  0
  -20.5385   -7.5779   10.5459 C   0  0  0  0  0  0  0  0  0  0  0  0
  -17.0847  -10.3011    7.8705 N   0  0  0  0  0  0  0  0  0  0  0  0
  -21.3213   -6.3483   10.8831 N   0  0  0  0  0  0  0  0  0  0  0  0
  -20.8182   -5.4724   11.8630 C   0  0  0  0  0  0  0  0  0  0  0  0
  -20.1880   -4.3168   11.5076 N   0  0  0  0  0  0  0  0  0  0  0  0
  -20.8293   -5.8221   13.1810 N   0  0  0  0  0  0  0  0  0  0  0  0
  -18.5402   -6.2088    7.0302 C   0  0  0  0  0  0  0  0  0  0  0  0
  -19.9528   -6.1784    6.8724 C   0  0  0  0  0  0  0  0  0  0  0  0
  -20.5239   -6.3554    5.5816 C   0  0  0  0  0  0  0  0  0  0  0  0
  -19.6833   -6.5620    4.4541 C   0  0  0  0  0  0  0  0  0  0  0  0
  -18.2731   -6.5906    4.6147 C   0  0  0  0  0  0  0  0  0  0  0  0
  -17.7021   -6.4151    5.9027 C   0  0  0  0  0  0  0  0  0  0  0  0
  2  4  1  0  0  0  0
  3  5  1  0  0  0  0
  4  7  1  0  0  0  0
  6  1  1  0  0  0  0
  7 10  1  0  0  0  0
  8  6  1  0  0  0  0
  8 11  1  0  0  0  0
  9  6  1  0  0  0  0
 10 13  1  0  0  0  0
 11 14  1  0  0  0  0
 12  9  1  0  0  0  0
 14 12  1  0  0  0  0
 14 15  1  0  0  0  0
 15 16  1  0  0  0  0
 15 17  1  0  0  0  0
 18  2  1  0  0  0  0
 18 23  2  0  0  0  0
 19  1  1  0  0  0  0
 19 18  1  0  0  0  0
 20 19  2  0  0  0  0
 21  3  1  0  0  0  0
 21 20  1  0  0  0  0
 22 21  2  0  0  0  0
 22 23  1  0  0  0  0
M  END
>  <CHROM.1>
79.05265486,-170.30775900,-152.49541296,91.14014421,73.56804069,-90.25422002
-142.60176209,18.97037335,91.99957161,-114.96127839,-76.47914429,-19.75317579
-6.89723794,8.14683656,1.87458631,-0.43210871,1.50880172

>  <Name>
1uui_lig

>  <RI>
0

>  <Rbt.Current_Directory>
/home/itssahil/PROJECTS/Mol_Feturizer/New_Systems/rnas/1uui

>  <Rbt.Executable>
rbdock ($Id: //depot/dev/client3/rdock/2013.1/src/exe/rbdock.cxx#4 $)

>  <Rbt.Library>
libRbt.so (2013.1, Build901 2013/11/27)

>  <Rbt.Parameter_File>
/export/apps/rDock/src/rDock_2013.1_src/data/scripts/dock_solv.prm

>  <Rbt.Receptor>
prm/blind_docking_60.prm

>  <SCORE>
-25.4826

>  <SCORE.INTER>
-21.3752

>  <SCORE.INTER.CONST>
1

>  <SCORE.INTER.POLAR>
-3.77322

>  <SCORE.INTER.ROT>
10

>  <SCORE.INTER.SOLV>
7.97839

>  <SCORE.INTER.VDW>
-14.5989

>  <SCORE.INTER.norm>
-0.929356

>  <SCORE.INTRA>
-4.90078

>  <SCORE.INTRA.DIHEDRAL>
-3.02974

>  <SCORE.INTRA.DIHEDRAL.0>
23.4151

>  <SCORE.INTRA.POLAR>
0

>  <SCORE.INTRA.POLAR.0>
0

>  <SCORE.INTRA.REPUL>
0

>  <SCORE.INTRA.REPUL.0>
0

>  <SCORE.INTRA.SOLV>
0.313837

>  <SCORE.INTRA.SOLV.lig_0>
-17.3568

>  <SCORE.INTRA.VDW>
-3.54282

>  <SCORE.INTRA.VDW.0>
1.0768

>  <SCORE.INTRA.norm>
-0.213077

>  <SCORE.RESTR>
0.793394

>  <SCORE.RESTR.CAVITY>
0.793394

>  <SCORE.RESTR.norm>
0.0344954

>  <SCORE.SYSTEM>
0

>  <SCORE.SYSTEM.CONST>
0

>  <SCORE.SYSTEM.DIHEDRAL>
0

>  <SCORE.SYSTEM.SOLV>
0

>  <SCORE.SYSTEM.norm>
0

>  <SCORE.heavy>
23

>  <SCORE.norm>
-1.10794

>  <RMSD>
13.252

$$$$
1uui_lig
 OpenBabel11021811413D
libRbt.so/2013.1/901 2013/11/27
 23 24  0  0  0  0  0  0  0  0999 V2000
  -20.0634   -6.3423    8.8169 C   0  0  0  0  0  0  0  0  0  0  0  0
  -19.6218   -8.8117    7.3477 O   0  0  0  0  0  0  0  0  0  0  0  0
  -17.7862   -3.9505    5.0017 O   0  0  0  0  0  0  0  0  0  0  0  0
  -18.5085   -9.6529    7.6748 C   0  0  0  0  0  0  0  0  0  0  0  0
  -18.8544   -3.0007    4.9779 C   0  0  0  0  0  0  0  0  0  0  0  0
  -20.0856   -4.9483    9.3698 N   0  0  0  0  0  0  0  0  0  0  0  0
  -17.7020   -9.0001    8.7984 C   0  0  0  0  0  0  0  0  0  0  0  0
  -19.9685   -4.9545   10.8534 C   0  0  0  0  0  0  0  0  0  0  0  0
  -21.3311   -4.2395    8.9738 C   0  0  0  0  0  0  0  0  0  0  0  0
  -16.2513   -9.4906    8.7548 C   0  0  0  0  0  0  0  0  0  0  0  0
  -21.1320   -5.7088   11.5190 C   0  0  0  0  0  0  0  0  0  0  0  0
  -22.5857   -4.9700    9.4824 C   0  0  0  0  0  0  0  0  0  0  0  0
  -15.5078   -8.9368    9.9086 N   0  0  0  0  0  0  0  0  0  0  0  0
  -22.2654   -5.9454   10.5707 N   0  0  0  0  0  0  0  0  0  0  0  0
  -23.1918   -6.9640   10.8618 C   0  0  0  0  0  0  0  0  0  0  0  0
  -24.0319   -7.4384    9.8983 N   0  0  0  0  0  0  0  0  0  0  0  0
  -23.3632   -7.4043   12.1409 N   0  0  0  0  0  0  0  0  0  0  0  0
  -19.1587   -7.5912    6.7628 C   0  0  0  0  0  0  0  0  0  0  0  0
  -19.3526   -6.3583    7.4437 C   0  0  0  0  0  0  0  0  0  0  0  0
  -18.8943   -5.1465    6.8560 C   0  0  0  0  0  0  0  0  0  0  0  0
  -18.2447   -5.1702    5.5919 C   0  0  0  0  0  0  0  0  0  0  0  0
  -18.0513   -6.4030    4.9152 C   0  0  0  0  0  0  0  0  0  0  0  0
  -18.5093   -7.6129    5.5002 C   0  0  0  0  0  0  0  0  0  0  0  0
  2  4  1  0  0  0  0
  3  5  1  0  0  0  0
  4  7  1  0  0  0  0
  6  1  1  0  0  0  0
  7 10  1  0  0  0  0
  8  6  1  0  0  0  0
  8 11  1  0  0  0  0
  9  6  1  0  0  0  0
 10 13  1  0  0  0  0
 11 14  1  0  0  0  0
 12  9  1  0  0  0  0
 14 12  1  0  0  0  0
 14 15  1  0  0  0  0
 15 16  1  0  0  0  0
 15 17  1  0  0  0  0
 18  2  1  0  0  0  0
 18 23  2  0  0  0  0
 19  1  1  0  0  0  0
 19 18  1  0  0  0  0
 20 19  2  0  0  0  0
 21  3  1  0  0  0  0
 21 20  1  0  0  0  0
 22 21  2  0  0  0  0
 22 23  1  0  0  0  0
M  END
>  <CHROM.1>
67.03051619,-155.05159831,-145.86598620,-175.55075795,-18.92917587,-163.75457284
82.86869402,-137.97721708,-114.26663494,176.96558970,-51.85757678,-19.76846125
-6.54140235,8.41281122,2.71371028,-0.62175585,2.41658350

>  <Name>
1uui_lig

>  <RI>
0

>  <Rbt.Current_Directory>
/home/itssahil/PROJECTS/Mol_Feturizer/New_Systems/rnas/1uui

>  <Rbt.Executable>
rbdock ($Id: //depot/dev/client3/rdock/2013.1/src/exe/rbdock.cxx#4 $)

>  <Rbt.Library>
libRbt.so (2013.1, Build901 2013/11/27)

>  <Rbt.Parameter_File>
/export/apps/rDock/src/rDock_2013.1_src/data/scripts/dock_solv.prm

>  <Rbt.Receptor>
prm/blind_docking_40.prm

>  <SCORE>
-30.9371

>  <SCORE.INTER>
-30.3633

>  <SCORE.INTER.CONST>
1

>  <SCORE.INTER.POLAR>
-3.42068

>  <SCORE.INTER.ROT>
10

>  <SCORE.INTER.SOLV>
9.34211

>  <SCORE.INTER.VDW>
-22.2206

>  <SCORE.INTER.norm>
-1.32014

>  <SCORE.INTRA>
-0.573847

>  <SCORE.INTRA.DIHEDRAL>
-4.79282

>  <SCORE.INTRA.DIHEDRAL.0>
23.4151

>  <SCORE.INTRA.POLAR>
0

>  <SCORE.INTRA.POLAR.0>
0

>  <SCORE.INTRA.REPUL>
0

>  <SCORE.INTRA.REPUL.0>
0

>  <SCORE.INTRA.SOLV>
-0.131432

>  <SCORE.INTRA.SOLV.lig_0>
-17.3568

>  <SCORE.INTRA.VDW>
1.88828

>  <SCORE.INTRA.VDW.0>
1.0768

>  <SCORE.INTRA.norm>
-0.0249499

>  <SCORE.RESTR>
0

>  <SCORE.RESTR.CAVITY>
0

>  <SCORE.RESTR.norm>
0

>  <SCORE.SYSTEM>
0

>  <SCORE.SYSTEM.CONST>
0

>  <SCORE.SYSTEM.DIHEDRAL>
0

>  <SCORE.SYSTEM.SOLV>
0

>  <SCORE.SYSTEM.norm>
0

>  <SCORE.heavy>
23

>  <SCORE.norm>
-1.34509

>  <RMSD>
13.254

$$$$
1uui_lig
 OpenBabel11021811413D
libRbt.so/2013.1/901 2013/11/27
 23 24  0  0  0  0  0  0  0  0999 V2000
  -19.7152   -5.5238    8.4313 C   0  0  0  0  0  0  0  0  0  0  0  0
  -17.6241   -7.3670    9.2567 O   0  0  0  0  0  0  0  0  0  0  0  0
  -20.3698   -8.4622    4.3817 O   0  0  0  0  0  0  0  0  0  0  0  0
  -17.4524   -8.5792   10.0016 C   0  0  0  0  0  0  0  0  0  0  0  0
  -19.9311   -7.5530    3.3693 C   0  0  0  0  0  0  0  0  0  0  0  0
  -19.3304   -4.2705    7.7028 N   0  0  0  0  0  0  0  0  0  0  0  0
  -16.2103   -8.4515   10.8848 C   0  0  0  0  0  0  0  0  0  0  0  0
  -19.4721   -3.0738    8.5760 C   0  0  0  0  0  0  0  0  0  0  0  0
  -20.1564   -4.0923    6.4795 C   0  0  0  0  0  0  0  0  0  0  0  0
  -16.6114   -8.4985   12.3626 C   0  0  0  0  0  0  0  0  0  0  0  0
  -20.9217   -2.8771    9.0512 C   0  0  0  0  0  0  0  0  0  0  0  0
  -21.6549   -4.0031    6.8149 C   0  0  0  0  0  0  0  0  0  0  0  0
  -15.4034   -8.3624   13.2068 N   0  0  0  0  0  0  0  0  0  0  0  0
  -21.8899   -3.7006    8.2612 N   0  0  0  0  0  0  0  0  0  0  0  0
  -23.1534   -3.9789    8.8149 C   0  0  0  0  0  0  0  0  0  0  0  0
  -23.2751   -4.8022    9.8949 N   0  0  0  0  0  0  0  0  0  0  0  0
  -24.2921   -3.5419    8.2052 N   0  0  0  0  0  0  0  0  0  0  0  0
  -18.3118   -7.6376    8.0319 C   0  0  0  0  0  0  0  0  0  0  0  0
  -19.3424   -6.7649    7.5877 C   0  0  0  0  0  0  0  0  0  0  0  0
  -20.0266   -7.0407    6.3712 C   0  0  0  0  0  0  0  0  0  0  0  0
  -19.6795   -8.1855    5.6036 C   0  0  0  0  0  0  0  0  0  0  0  0
  -18.6490   -9.0543    6.0492 C   0  0  0  0  0  0  0  0  0  0  0  0
  -17.9663   -8.7808    7.2636 C   0  0  0  0  0  0  0  0  0  0  0  0
  2  4  1  0  0  0  0
  3  5  1  0  0  0  0
  4  7  1  0  0  0  0
  6  1  1  0  0  0  0
  7 10  1  0  0  0  0
  8  6  1  0  0  0  0
  8 11  1  0  0  0  0
  9  6  1  0  0  0  0
 10 13  1  0  0  0  0
 11 14  1  0  0  0  0
 12  9  1  0  0  0  0
 14 12  1  0  0  0  0
 14 15  1  0  0  0  0
 15 16  1  0  0  0  0
 15 17  1  0  0  0  0
 18  2  1  0  0  0  0
 18 23  2  0  0  0  0
 19  1  1  0  0  0  0
 19 18  1  0  0  0  0
 20 19  2  0  0  0  0
 21  3  1  0  0  0  0
 21 20  1  0  0  0  0
 22 21  2  0  0  0  0
 22 23  1  0  0  0  0
M  END
>  <CHROM.1>
152.65554610,115.63765578,-170.78916483,-179.51699646,69.63301880,-68.61972987
178.81986298,-45.77342755,137.22117221,112.19339676,74.26352632,-19.63483377
-6.26412792,8.17356008,2.99742633,0.76007320,-2.01274913

>  <Name>
1uui_lig

>  <RI>
0

>  <Rbt.Current_Directory>
/home/itssahil/PROJECTS/Mol_Feturizer/New_Systems/rnas/1uui

>  <Rbt.Executable>
rbdock ($Id: //depot/dev/client3/rdock/2013.1/src/exe/rbdock.cxx#4 $)

>  <Rbt.Library>
libRbt.so (2013.1, Build901 2013/11/27)

>  <Rbt.Parameter_File>
/export/apps/rDock/src/rDock_2013.1_src/data/scripts/dock_solv.prm

>  <Rbt.Receptor>
prm/blind_docking_100.prm

>  <SCORE>
-30.1656

>  <SCORE.INTER>
-28.5539

>  <SCORE.INTER.CONST>
1

>  <SCORE.INTER.POLAR>
-3.71092

>  <SCORE.INTER.ROT>
10

>  <SCORE.INTER.SOLV>
8.31561

>  <SCORE.INTER.VDW>
-19.7047

>  <SCORE.INTER.norm>
-1.24147

>  <SCORE.INTRA>
-2.30254

>  <SCORE.INTRA.DIHEDRAL>
-3.51881

>  <SCORE.INTRA.DIHEDRAL.0>
23.4151

>  <SCORE.INTRA.POLAR>
0

>  <SCORE.INTRA.POLAR.0>
0

>  <SCORE.INTRA.REPUL>
0

>  <SCORE.INTRA.REPUL.0>
0

>  <SCORE.INTRA.SOLV>
0.029805

>  <SCORE.INTRA.SOLV.lig_0>
-17.3568

>  <SCORE.INTRA.VDW>
-0.558038

>  <SCORE.INTRA.VDW.0>
1.0768

>  <SCORE.INTRA.norm>
-0.10011

>  <SCORE.RESTR>
0.690856

>  <SCORE.RESTR.CAVITY>
0.690856

>  <SCORE.RESTR.norm>
0.0300372

>  <SCORE.SYSTEM>
0

>  <SCORE.SYSTEM.CONST>
0

>  <SCORE.SYSTEM.DIHEDRAL>
0

>  <SCORE.SYSTEM.SOLV>
0

>  <SCORE.SYSTEM.norm>
0

>  <SCORE.heavy>
23

>  <SCORE.norm>
-1.31155

>  <RMSD>
13.268

$$$$
1uui_lig
 OpenBabel11021811413D
libRbt.so/2013.1/901 2013/11/27
 23 24  0  0  0  0  0  0  0  0999 V2000
  -19.7710   -7.3656    8.5205 C   0  0  0  0  0  0  0  0  0  0  0  0
  -18.3393   -9.8729    8.1809 O   0  0  0  0  0  0  0  0  0  0  0  0
  -19.5890   -6.8632    3.5029 O   0  0  0  0  0  0  0  0  0  0  0  0
  -16.9939  -10.3612    8.1067 C   0  0  0  0  0  0  0  0  0  0  0  0
  -18.8341   -5.6490    3.4977 C   0  0  0  0  0  0  0  0  0  0  0  0
  -18.9699   -6.1510    8.8841 N   0  0  0  0  0  0  0  0  0  0  0  0
  -16.0285   -9.2147    8.4113 C   0  0  0  0  0  0  0  0  0  0  0  0
  -19.0792   -5.8477   10.3370 C   0  0  0  0  0  0  0  0  0  0  0  0
  -19.4097   -4.9692    8.0965 C   0  0  0  0  0  0  0  0  0  0  0  0
  -15.9131   -9.0157    9.9260 C   0  0  0  0  0  0  0  0  0  0  0  0
  -20.5303   -5.5575   10.7563 C   0  0  0  0  0  0  0  0  0  0  0  0
  -20.8941   -4.6466    8.3388 C   0  0  0  0  0  0  0  0  0  0  0  0
  -17.1761   -8.4466   10.4470 N   0  0  0  0  0  0  0  0  0  0  0  0
  -21.4167   -5.3026    9.5777 N   0  0  0  0  0  0  0  0  0  0  0  0
  -22.8078   -5.4504    9.7308 C   0  0  0  0  0  0  0  0  0  0  0  0
  -23.3246   -6.5029   10.4267 N   0  0  0  0  0  0  0  0  0  0  0  0
  -23.6719   -4.6234    9.0759 N   0  0  0  0  0  0  0  0  0  0  0  0
  -18.6506   -9.1141    7.0089 C   0  0  0  0  0  0  0  0  0  0  0  0
  -19.3502   -7.8819    7.1250 C   0  0  0  0  0  0  0  0  0  0  0  0
  -19.6615   -7.1330    5.9562 C   0  0  0  0  0  0  0  0  0  0  0  0
  -19.2735   -7.6166    4.6771 C   0  0  0  0  0  0  0  0  0  0  0  0
  -18.5739   -8.8467    4.5646 C   0  0  0  0  0  0  0  0  0  0  0  0
  -18.2636   -9.5955    5.7303 C   0  0  0  0  0  0  0  0  0  0  0  0
  2  4  1  0  0  0  0
  3  5  1  0  0  0  0
  4  7  1  0  0  0  0
  6  1  1  0  0  0  0
  7 10  1  0  0  0  0
  8  6  1  0  0  0  0
  8 11  1  0  0  0  0
  9  6  1  0  0  0  0
 10 13  1  0  0  0  0
 11 14  1  0  0  0  0
 12  9  1  0  0  0  0
 14 12  1  0  0  0  0
 14 15  1  0  0  0  0
 15 16  1  0  0  0  0
 15 17  1  0  0  0  0
 18  2  1  0  0  0  0
 18 23  2  0  0  0  0
 19  1  1  0  0  0  0
 19 18  1  0  0  0  0
 20 19  2  0  0  0  0
 21  3  1  0  0  0  0
 21 20  1  0  0  0  0
 22 21  2  0  0  0  0
 22 23  1  0  0  0  0
M  END
>  <CHROM.1>
76.38411209,81.16251003,-164.77149416,-70.59471711,161.34615199,-42.47990308
-22.92255657,-92.62924191,-136.50272544,110.69444415,67.82971532,-19.43833099
-7.19045681,7.92334324,-2.65113283,0.69166979,-1.56465530

>  <Name>
1uui_lig

>  <RI>
0

>  <Rbt.Current_Directory>
/home/itssahil/PROJECTS/Mol_Feturizer/New_Systems/rnas/1uui

>  <Rbt.Executable>
rbdock ($Id: //depot/dev/client3/rdock/2013.1/src/exe/rbdock.cxx#4 $)

>  <Rbt.Library>
libRbt.so (2013.1, Build901 2013/11/27)

>  <Rbt.Parameter_File>
/export/apps/rDock/src/rDock_2013.1_src/data/scripts/dock_solv.prm

>  <Rbt.Receptor>
prm/blind_docking_100.prm

>  <SCORE>
-21.7631

>  <SCORE.INTER>
-17.0334

>  <SCORE.INTER.CONST>
1

>  <SCORE.INTER.POLAR>
-1.93759

>  <SCORE.INTER.ROT>
10

>  <SCORE.INTER.SOLV>
6.10217

>  <SCORE.INTER.VDW>
-17.1977

>  <SCORE.INTER.norm>
-0.740583

>  <SCORE.INTRA>
-6.74804

>  <SCORE.INTRA.DIHEDRAL>
-8.13761

>  <SCORE.INTRA.DIHEDRAL.0>
23.4151

>  <SCORE.INTRA.POLAR>
-0.704026

>  <SCORE.INTRA.POLAR.0>
0

>  <SCORE.INTRA.REPUL>
0

>  <SCORE.INTRA.REPUL.0>
0

>  <SCORE.INTRA.SOLV>
1.08958

>  <SCORE.INTRA.SOLV.lig_0>
-17.3568

>  <SCORE.INTRA.VDW>
-0.830337

>  <SCORE.INTRA.VDW.0>
1.0768

>  <SCORE.INTRA.norm>
-0.293393

>  <SCORE.RESTR>
2.01835

>  <SCORE.RESTR.CAVITY>
2.01835

>  <SCORE.RESTR.norm>
0.0877542

>  <SCORE.SYSTEM>
0

>  <SCORE.SYSTEM.CONST>
0

>  <SCORE.SYSTEM.DIHEDRAL>
0

>  <SCORE.SYSTEM.SOLV>
0

>  <SCORE.SYSTEM.norm>
0

>  <SCORE.heavy>
23

>  <SCORE.norm>
-0.946222

>  <RMSD>
13.275

$$$$
1uui_lig
 OpenBabel11021811413D
libRbt.so/2013.1/901 2013/11/27
 23 24  0  0  0  0  0  0  0  0999 V2000
  -20.2915   -5.0029    7.4632 C   0  0  0  0  0  0  0  0  0  0  0  0
  -17.8276   -5.2695    5.9436 O   0  0  0  0  0  0  0  0  0  0  0  0
  -21.0903   -9.9034    6.5643 O   0  0  0  0  0  0  0  0  0  0  0  0
  -17.5795   -5.0242    4.5536 C   0  0  0  0  0  0  0  0  0  0  0  0
  -21.5036  -10.3740    5.2790 C   0  0  0  0  0  0  0  0  0  0  0  0
  -20.2335   -5.0927    8.9593 N   0  0  0  0  0  0  0  0  0  0  0  0
  -18.8397   -4.4359    3.9172 C   0  0  0  0  0  0  0  0  0  0  0  0
  -21.5152   -5.6011    9.5193 C   0  0  0  0  0  0  0  0  0  0  0  0
  -19.9209   -3.7687    9.5591 C   0  0  0  0  0  0  0  0  0  0  0  0
  -19.8236   -5.5577    3.5698 C   0  0  0  0  0  0  0  0  0  0  0  0
  -22.6973   -4.6770    9.1810 C   0  0  0  0  0  0  0  0  0  0  0  0
  -20.9783   -2.7145    9.1893 C   0  0  0  0  0  0  0  0  0  0  0  0
  -21.0410   -4.9760    2.9616 N   0  0  0  0  0  0  0  0  0  0  0  0
  -22.2429   -3.3384    8.6896 N   0  0  0  0  0  0  0  0  0  0  0  0
  -23.1388   -2.5499    7.9438 C   0  0  0  0  0  0  0  0  0  0  0  0
  -23.3920   -1.2580    8.2984 N   0  0  0  0  0  0  0  0  0  0  0  0
  -23.8736   -3.0975    6.9340 N   0  0  0  0  0  0  0  0  0  0  0  0
  -18.6497   -6.4299    6.0974 C   0  0  0  0  0  0  0  0  0  0  0  0
  -19.8637   -6.3485    6.8329 C   0  0  0  0  0  0  0  0  0  0  0  0
  -20.6759   -7.5063    6.9870 C   0  0  0  0  0  0  0  0  0  0  0  0
  -20.2734   -8.7399    6.4067 C   0  0  0  0  0  0  0  0  0  0  0  0
  -19.0613   -8.8177    5.6718 C   0  0  0  0  0  0  0  0  0  0  0  0
  -18.2494   -7.6631    5.5183 C   0  0  0  0  0  0  0  0  0  0  0  0
  2  4  1  0  0  0  0
  3  5  1  0  0  0  0
  4  7  1  0  0  0  0
  6  1  1  0  0  0  0
  7 10  1  0  0  0  0
  8  6  1  0  0  0  0
  8 11  1  0  0  0  0
  9  6  1  0  0  0  0
 10 13  1  0  0  0  0
 11 14  1  0  0  0  0
 12  9  1  0  0  0  0
 14 12  1  0  0  0  0
 14 15  1  0  0  0  0
 15 16  1  0  0  0  0
 15 17  1  0  0  0  0
 18  2  1  0  0  0  0
 18 23  2  0  0  0  0
 19  1  1  0  0  0  0
 19 18  1  0  0  0  0
 20 19  2  0  0  0  0
 21  3  1  0  0  0  0
 21 20  1  0  0  0  0
 22 21  2  0  0  0  0
 22 23  1  0  0  0  0
M  END
>  <CHROM.1>
75.07090829,-81.69688731,-88.01922335,179.70959170,-175.26603805,127.58639145
19.82719861,-8.02403572,-125.15227397,-112.25876850,119.65251623,-20.60938052
-5.51869445,6.76218170,2.40833689,0.96469210,-0.15396733

>  <Name>
1uui_lig

>  <RI>
0

>  <Rbt.Current_Directory>
/home/itssahil/PROJECTS/Mol_Feturizer/New_Systems/rnas/1uui

>  <Rbt.Executable>
rbdock ($Id: //depot/dev/client3/rdock/2013.1/src/exe/rbdock.cxx#4 $)

>  <Rbt.Library>
libRbt.so (2013.1, Build901 2013/11/27)

>  <Rbt.Parameter_File>
/export/apps/rDock/src/rDock_2013.1_src/data/scripts/dock_solv.prm

>  <Rbt.Receptor>
prm/blind_docking_40.prm

>  <SCORE>
-16.7363

>  <SCORE.INTER>
-12.4483

>  <SCORE.INTER.CONST>
1

>  <SCORE.INTER.POLAR>
-2.15189

>  <SCORE.INTER.ROT>
10

>  <SCORE.INTER.SOLV>
6.28112

>  <SCORE.INTER.VDW>
-13.4863

>  <SCORE.INTER.norm>
-0.541229

>  <SCORE.INTRA>
-4.56207

>  <SCORE.INTRA.DIHEDRAL>
-7.8991

>  <SCORE.INTRA.DIHEDRAL.0>
23.4151

>  <SCORE.INTRA.POLAR>
0

>  <SCORE.INTRA.POLAR.0>
0

>  <SCORE.INTRA.REPUL>
0

>  <SCORE.INTRA.REPUL.0>
0

>  <SCORE.INTRA.SOLV>
0.0867894

>  <SCORE.INTRA.SOLV.lig_0>
-17.3568

>  <SCORE.INTRA.VDW>
-0.655916

>  <SCORE.INTRA.VDW.0>
1.0768

>  <SCORE.INTRA.norm>
-0.198351

>  <SCORE.RESTR>
0.274024

>  <SCORE.RESTR.CAVITY>
0.274024

>  <SCORE.RESTR.norm>
0.0119141

>  <SCORE.SYSTEM>
0

>  <SCORE.SYSTEM.CONST>
0

>  <SCORE.SYSTEM.DIHEDRAL>
0

>  <SCORE.SYSTEM.SOLV>
0

>  <SCORE.SYSTEM.norm>
0

>  <SCORE.heavy>
23

>  <SCORE.norm>
-0.727666

>  <RMSD>
13.291

$$$$
1uui_lig
 OpenBabel11021811413D
libRbt.so/2013.1/901 2013/11/27
 23 24  0  0  0  0  0  0  0  0999 V2000
  -19.2646   -5.9900    7.0589 C   0  0  0  0  0  0  0  0  0  0  0  0
  -17.5133   -6.7872    9.2381 O   0  0  0  0  0  0  0  0  0  0  0  0
  -17.9783  -10.3000    4.7717 O   0  0  0  0  0  0  0  0  0  0  0  0
  -17.8316   -7.4905   10.4456 C   0  0  0  0  0  0  0  0  0  0  0  0
  -19.1177  -11.1452    4.9488 C   0  0  0  0  0  0  0  0  0  0  0  0
  -20.7033   -6.2378    6.7150 N   0  0  0  0  0  0  0  0  0  0  0  0
  -16.5837   -8.2229   10.9411 C   0  0  0  0  0  0  0  0  0  0  0  0
  -21.3746   -4.9867    6.2690 C   0  0  0  0  0  0  0  0  0  0  0  0
  -21.4366   -6.8069    7.8764 C   0  0  0  0  0  0  0  0  0  0  0  0
  -16.6062   -8.3204   12.4699 C   0  0  0  0  0  0  0  0  0  0  0  0
  -21.3653   -3.9071    7.3645 C   0  0  0  0  0  0  0  0  0  0  0  0
  -21.3963   -5.8632    9.0905 C   0  0  0  0  0  0  0  0  0  0  0  0
  -15.5980   -9.3076   12.9167 N   0  0  0  0  0  0  0  0  0  0  0  0
  -21.0129   -4.4691    8.7060 N   0  0  0  0  0  0  0  0  0  0  0  0
  -20.5409   -3.5966    9.7042 C   0  0  0  0  0  0  0  0  0  0  0  0
  -20.2288   -4.0627   10.9469 N   0  0  0  0  0  0  0  0  0  0  0  0
  -20.5127   -2.2494    9.4946 N   0  0  0  0  0  0  0  0  0  0  0  0
  -17.6286   -7.6652    8.1147 C   0  0  0  0  0  0  0  0  0  0  0  0
  -18.4736   -7.3182    7.0252 C   0  0  0  0  0  0  0  0  0  0  0  0
  -18.5885   -8.1967    5.9122 C   0  0  0  0  0  0  0  0  0  0  0  0
  -17.8600   -9.4171    5.8909 C   0  0  0  0  0  0  0  0  0  0  0  0
  -17.0161   -9.7601    6.9797 C   0  0  0  0  0  0  0  0  0  0  0  0
  -16.9015   -8.8847    8.0916 C   0  0  0  0  0  0  0  0  0  0  0  0
  2  4  1  0  0  0  0
  3  5  1  0  0  0  0
  4  7  1  0  0  0  0
  6  1  1  0  0  0  0
  7 10  1  0  0  0  0
  8  6  1  0  0  0  0
  8 11  1  0  0  0  0
  9  6  1  0  0  0  0
 10 13  1  0  0  0  0
 11 14  1  0  0  0  0
 12  9  1  0  0  0  0
 14 12  1  0  0  0  0
 14 15  1  0  0  0  0
 15 16  1  0  0  0  0
 15 17  1  0  0  0  0
 18  2  1  0  0  0  0
 18 23  2  0  0  0  0
 19  1  1  0  0  0  0
 19 18  1  0  0  0  0
 20 19  2  0  0  0  0
 21  3  1  0  0  0  0
 21 20  1  0  0  0  0
 22 21  2  0  0  0  0
 22 23  1  0  0  0  0
M  END
>  <CHROM.1>
84.46285981,149.27877566,-159.86547638,165.82318056,61.50517288,178.93000943
-51.15290363,-104.97482418,124.60754953,-131.00216398,-85.12422022,-18.93756109
-6.97658899,8.37099238,2.53784930,-0.84802184,0.98480668

>  <Name>
1uui_lig

>  <RI>
0

>  <Rbt.Current_Directory>
/home/itssahil/PROJECTS/Mol_Feturizer/New_Systems/rnas/1uui

>  <Rbt.Executable>
rbdock ($Id: //depot/dev/client3/rdock/2013.1/src/exe/rbdock.cxx#4 $)

>  <Rbt.Library>
libRbt.so (2013.1, Build901 2013/11/27)

>  <Rbt.Parameter_File>
/export/apps/rDock/src/rDock_2013.1_src/data/scripts/dock_solv.prm

>  <Rbt.Receptor>
prm/blind_docking_100.prm

>  <SCORE>
-24.1252

>  <SCORE.INTER>
-21.5525

>  <SCORE.INTER.CONST>
1

>  <SCORE.INTER.POLAR>
-2.87884

>  <SCORE.INTER.ROT>
10

>  <SCORE.INTER.SOLV>
8.08829

>  <SCORE.INTER.VDW>
-17.7349

>  <SCORE.INTER.norm>
-0.937065

>  <SCORE.INTRA>
-2.60579

>  <SCORE.INTRA.DIHEDRAL>
-4.05939

>  <SCORE.INTRA.DIHEDRAL.0>
23.4151

>  <SCORE.INTRA.POLAR>
0

>  <SCORE.INTRA.POLAR.0>
0

>  <SCORE.INTRA.REPUL>
0

>  <SCORE.INTRA.REPUL.0>
0

>  <SCORE.INTRA.SOLV>
0.105061

>  <SCORE.INTRA.SOLV.lig_0>
-17.3568

>  <SCORE.INTRA.VDW>
-0.628622

>  <SCORE.INTRA.VDW.0>
1.0768

>  <SCORE.INTRA.norm>
-0.113295

>  <SCORE.RESTR>
0.0330863

>  <SCORE.RESTR.CAVITY>
0.0330863

>  <SCORE.RESTR.norm>
0.00143853

>  <SCORE.SYSTEM>
0

>  <SCORE.SYSTEM.CONST>
0

>  <SCORE.SYSTEM.DIHEDRAL>
0

>  <SCORE.SYSTEM.SOLV>
0

>  <SCORE.SYSTEM.norm>
0

>  <SCORE.heavy>
23

>  <SCORE.norm>
-1.04892

>  <RMSD>
13.307

$$$$
1uui_lig
 OpenBabel11021811413D
libRbt.so/2013.1/901 2013/11/27
 23 24  0  0  0  0  0  0  0  0999 V2000
  -20.0608   -6.3141    8.7631 C   0  0  0  0  0  0  0  0  0  0  0  0
  -18.2695   -5.6588    6.5692 O   0  0  0  0  0  0  0  0  0  0  0  0
  -20.6056   -1.3491    9.4798 O   0  0  0  0  0  0  0  0  0  0  0  0
  -19.1103   -6.0128    5.4639 C   0  0  0  0  0  0  0  0  0  0  0  0
  -21.8216   -0.9496    8.8426 C   0  0  0  0  0  0  0  0  0  0  0  0
  -18.9378   -6.8995    9.5666 N   0  0  0  0  0  0  0  0  0  0  0  0
  -18.7014   -5.1900    4.2412 C   0  0  0  0  0  0  0  0  0  0  0  0
  -19.2008   -8.3253    9.9023 C   0  0  0  0  0  0  0  0  0  0  0  0
  -18.7216   -6.1272   10.8185 C   0  0  0  0  0  0  0  0  0  0  0  0
  -19.5763   -5.5654    3.0409 C   0  0  0  0  0  0  0  0  0  0  0  0
  -20.4765   -8.4918   10.7454 C   0  0  0  0  0  0  0  0  0  0  0  0
  -19.9802   -6.1162   11.7028 C   0  0  0  0  0  0  0  0  0  0  0  0
  -18.9556   -5.0544    1.7983 N   0  0  0  0  0  0  0  0  0  0  0  0
  -20.9466   -7.1915   11.3180 N   0  0  0  0  0  0  0  0  0  0  0  0
  -22.2867   -7.0779   11.7323 C   0  0  0  0  0  0  0  0  0  0  0  0
  -22.5946   -6.8372   13.0385 N   0  0  0  0  0  0  0  0  0  0  0  0
  -23.3075   -7.3386   10.8665 N   0  0  0  0  0  0  0  0  0  0  0  0
  -18.8538   -4.5792    7.3033 C   0  0  0  0  0  0  0  0  0  0  0  0
  -19.7367   -4.8503    8.3842 C   0  0  0  0  0  0  0  0  0  0  0  0
  -20.3189   -3.7732    9.1086 C   0  0  0  0  0  0  0  0  0  0  0  0
  -20.0178   -2.4308    8.7515 C   0  0  0  0  0  0  0  0  0  0  0  0
  -19.1349   -2.1633    7.6726 C   0  0  0  0  0  0  0  0  0  0  0  0
  -18.5540   -3.2374    6.9482 C   0  0  0  0  0  0  0  0  0  0  0  0
  2  4  1  0  0  0  0
  3  5  1  0  0  0  0
  4  7  1  0  0  0  0
  6  1  1  0  0  0  0
  7 10  1  0  0  0  0
  8  6  1  0  0  0  0
  8 11  1  0  0  0  0
  9  6  1  0  0  0  0
 10 13  1  0  0  0  0
 11 14  1  0  0  0  0
 12  9  1  0  0  0  0
 14 12  1  0  0  0  0
 14 15  1  0  0  0  0
 15 16  1  0  0  0  0
 15 17  1  0  0  0  0
 18  2  1  0  0  0  0
 18 23  2  0  0  0  0
 19  1  1  0  0  0  0
 19 18  1  0  0  0  0
 20 19  2  0  0  0  0
 21  3  1  0  0  0  0
 21 20  1  0  0  0  0
 22 21  2  0  0  0  0
 22 23  1  0  0  0  0
M  END
>  <CHROM.1>
90.09711341,179.27322351,-177.88238328,-164.82220510,65.35200492,117.22482711
-21.55079152,-125.54249507,90.25350457,79.10127691,-92.03333101,-20.03605063
-5.31250585,8.50154763,-2.61206708,1.21985853,-0.23821787

>  <Name>
1uui_lig

>  <RI>
0

>  <Rbt.Current_Directory>
/home/itssahil/PROJECTS/Mol_Feturizer/New_Systems/rnas/1uui

>  <Rbt.Executable>
rbdock ($Id: //depot/dev/client3/rdock/2013.1/src/exe/rbdock.cxx#4 $)

>  <Rbt.Library>
libRbt.so (2013.1, Build901 2013/11/27)

>  <Rbt.Parameter_File>
/export/apps/rDock/src/rDock_2013.1_src/data/scripts/dock_solv.prm

>  <Rbt.Receptor>
prm/blind_docking_40.prm

>  <SCORE>
-32.4606

>  <SCORE.INTER>
-27.6894

>  <SCORE.INTER.CONST>
1

>  <SCORE.INTER.POLAR>
-4.44669

>  <SCORE.INTER.ROT>
10

>  <SCORE.INTER.SOLV>
7.3487

>  <SCORE.INTER.VDW>
-16.3535

>  <SCORE.INTER.norm>
-1.20389

>  <SCORE.INTRA>
-5.53575

>  <SCORE.INTRA.DIHEDRAL>
-4.99603

>  <SCORE.INTRA.DIHEDRAL.0>
23.4151

>  <SCORE.INTRA.POLAR>
0

>  <SCORE.INTRA.POLAR.0>
0

>  <SCORE.INTRA.REPUL>
0

>  <SCORE.INTRA.REPUL.0>
0

>  <SCORE.INTRA.SOLV>
0.144676

>  <SCORE.INTRA.SOLV.lig_0>
-17.3568

>  <SCORE.INTRA.VDW>
-3.11007

>  <SCORE.INTRA.VDW.0>
1.0768

>  <SCORE.INTRA.norm>
-0.240685

>  <SCORE.RESTR>
0.764555

>  <SCORE.RESTR.CAVITY>
0.764555

>  <SCORE.RESTR.norm>
0.0332415

>  <SCORE.SYSTEM>
0

>  <SCORE.SYSTEM.CONST>
0

>  <SCORE.SYSTEM.DIHEDRAL>
0

>  <SCORE.SYSTEM.SOLV>
0

>  <SCORE.SYSTEM.norm>
0

>  <SCORE.heavy>
23

>  <SCORE.norm>
-1.41133

>  <RMSD>
13.327

$$$$
1uui_lig
 OpenBabel11021811413D
libRbt.so/2013.1/901 2013/11/27
 23 24  0  0  0  0  0  0  0  0999 V2000
  -20.5103   -5.9950    7.3299 C   0  0  0  0  0  0  0  0  0  0  0  0
  -17.7758   -6.4251    6.4418 O   0  0  0  0  0  0  0  0  0  0  0  0
  -21.8694   -9.6419    4.1182 O   0  0  0  0  0  0  0  0  0  0  0  0
  -17.6145   -6.7638    7.8250 C   0  0  0  0  0  0  0  0  0  0  0  0
  -21.7567  -10.9804    4.6076 C   0  0  0  0  0  0  0  0  0  0  0  0
  -21.0438   -6.6635    8.5619 N   0  0  0  0  0  0  0  0  0  0  0  0
  -17.1482   -8.2164    7.9329 C   0  0  0  0  0  0  0  0  0  0  0  0
  -22.4309   -6.2151    8.8613 C   0  0  0  0  0  0  0  0  0  0  0  0
  -20.1708   -6.3912    9.7342 C   0  0  0  0  0  0  0  0  0  0  0  0
  -16.8394   -8.5601    9.3935 C   0  0  0  0  0  0  0  0  0  0  0  0
  -22.5028   -4.7003    9.1184 C   0  0  0  0  0  0  0  0  0  0  0  0
  -20.0627   -4.8843   10.0231 C   0  0  0  0  0  0  0  0  0  0  0  0
  -16.4059   -9.9721    9.4876 N   0  0  0  0  0  0  0  0  0  0  0  0
  -21.1504   -4.1045    9.3544 N   0  0  0  0  0  0  0  0  0  0  0  0
  -20.9789   -2.7193    9.1751 C   0  0  0  0  0  0  0  0  0  0  0  0
  -19.7988   -2.2170    8.7126 N   0  0  0  0  0  0  0  0  0  0  0  0
  -21.9375   -1.8404    9.5852 N   0  0  0  0  0  0  0  0  0  0  0  0
  -18.8051   -7.2284    5.8574 C   0  0  0  0  0  0  0  0  0  0  0  0
  -20.1573   -7.0547    6.2605 C   0  0  0  0  0  0  0  0  0  0  0  0
  -21.1770   -7.8590    5.6798 C   0  0  0  0  0  0  0  0  0  0  0  0
  -20.8430   -8.8328    4.6997 C   0  0  0  0  0  0  0  0  0  0  0  0
  -19.4920   -9.0030    4.2983 C   0  0  0  0  0  0  0  0  0  0  0  0
  -18.4734   -8.2017    4.8780 C   0  0  0  0  0  0  0  0  0  0  0  0
  2  4  1  0  0  0  0
  3  5  1  0  0  0  0
  4  7  1  0  0  0  0
  6  1  1  0  0  0  0
  7 10  1  0  0  0  0
  8  6  1  0  0  0  0
  8 11  1  0  0  0  0
  9  6  1  0  0  0  0
 10 13  1  0  0  0  0
 11 14  1  0  0  0  0
 12  9  1  0  0  0  0
 14 12  1  0  0  0  0
 14 15  1  0  0  0  0
 15 16  1  0  0  0  0
 15 17  1  0  0  0  0
 18  2  1  0  0  0  0
 18 23  2  0  0  0  0
 19  1  1  0  0  0  0
 19 18  1  0  0  0  0
 20 19  2  0  0  0  0
 21  3  1  0  0  0  0
 21 20  1  0  0  0  0
 22 21  2  0  0  0  0
 22 23  1  0  0  0  0
M  END
>  <CHROM.1>
63.43193399,174.57611920,-119.71054373,179.28887221,49.19211996,-146.64659777
-117.35368313,109.42677498,67.68105641,-115.11489420,-108.35805488,-19.93780395
-6.69966069,7.53485742,1.80979073,-0.50095829,0.69110661

>  <Name>
1uui_lig

>  <RI>
0

>  <Rbt.Current_Directory>
/home/itssahil/PROJECTS/Mol_Feturizer/New_Systems/rnas/1uui

>  <Rbt.Executable>
rbdock ($Id: //depot/dev/client3/rdock/2013.1/src/exe/rbdock.cxx#4 $)

>  <Rbt.Library>
libRbt.so (2013.1, Build901 2013/11/27)

>  <Rbt.Parameter_File>
/export/apps/rDock/src/rDock_2013.1_src/data/scripts/dock_solv.prm

>  <Rbt.Receptor>
prm/blind_docking_60.prm

>  <SCORE>
-23.9433

>  <SCORE.INTER>
-19.6502

>  <SCORE.INTER.CONST>
1

>  <SCORE.INTER.POLAR>
-2.71469

>  <SCORE.INTER.ROT>
10

>  <SCORE.INTER.SOLV>
6.7449

>  <SCORE.INTER.VDW>
-16.5661

>  <SCORE.INTER.norm>
-0.854356

>  <SCORE.INTRA>
-4.55606

>  <SCORE.INTRA.DIHEDRAL>
-6.5179

>  <SCORE.INTRA.DIHEDRAL.0>
23.4151

>  <SCORE.INTRA.POLAR>
0

>  <SCORE.INTRA.POLAR.0>
0

>  <SCORE.INTRA.REPUL>
0

>  <SCORE.INTRA.REPUL.0>
0

>  <SCORE.INTRA.SOLV>
0.0185364

>  <SCORE.INTRA.SOLV.lig_0>
-17.3568

>  <SCORE.INTRA.VDW>
-1.30638

>  <SCORE.INTRA.VDW.0>
1.0768

>  <SCORE.INTRA.norm>
-0.198089

>  <SCORE.RESTR>
0.262926

>  <SCORE.RESTR.CAVITY>
0.262926

>  <SCORE.RESTR.norm>
0.0114316

>  <SCORE.SYSTEM>
0

>  <SCORE.SYSTEM.CONST>
0

>  <SCORE.SYSTEM.DIHEDRAL>
0

>  <SCORE.SYSTEM.SOLV>
0

>  <SCORE.SYSTEM.norm>
0

>  <SCORE.heavy>
23

>  <SCORE.norm>
-1.04101

>  <RMSD>
13.344

$$$$
1uui_lig
 OpenBabel11021811413D
libRbt.so/2013.1/901 2013/11/27
 23 24  0  0  0  0  0  0  0  0999 V2000
  -21.0015   -5.0104    8.9327 C   0  0  0  0  0  0  0  0  0  0  0  0
  -18.5857   -3.9522    7.7098 O   0  0  0  0  0  0  0  0  0  0  0  0
  -22.5722   -0.2365    9.3847 O   0  0  0  0  0  0  0  0  0  0  0  0
  -18.2276   -3.6996    6.3453 C   0  0  0  0  0  0  0  0  0  0  0  0
  -23.2957    0.2303    8.2433 C   0  0  0  0  0  0  0  0  0  0  0  0
  -19.6816   -5.7028    9.1001 N   0  0  0  0  0  0  0  0  0  0  0  0
  -19.1819   -4.4659    5.4281 C   0  0  0  0  0  0  0  0  0  0  0  0
  -19.7835   -7.1480    8.7598 C   0  0  0  0  0  0  0  0  0  0  0  0
  -19.1770   -5.5553   10.4908 C   0  0  0  0  0  0  0  0  0  0  0  0
  -18.5157   -4.7171    4.0716 C   0  0  0  0  0  0  0  0  0  0  0  0
  -20.7829   -7.8837    9.6686 C   0  0  0  0  0  0  0  0  0  0  0  0
  -20.1569   -6.1511   11.5160 C   0  0  0  0  0  0  0  0  0  0  0  0
  -17.3498   -5.6109    4.2519 N   0  0  0  0  0  0  0  0  0  0  0  0
  -21.1421   -7.0788   10.8780 N   0  0  0  0  0  0  0  0  0  0  0  0
  -22.3291   -7.3858   11.5689 C   0  0  0  0  0  0  0  0  0  0  0  0
  -23.2607   -6.4216   11.8169 N   0  0  0  0  0  0  0  0  0  0  0  0
  -22.5136   -8.6185   12.1221 N   0  0  0  0  0  0  0  0  0  0  0  0
  -19.5856   -3.0216    8.1343 C   0  0  0  0  0  0  0  0  0  0  0  0
  -20.7843   -3.4920    8.7370 C   0  0  0  0  0  0  0  0  0  0  0  0
  -21.7779   -2.5630    9.1535 C   0  0  0  0  0  0  0  0  0  0  0  0
  -21.5713   -1.1691    8.9670 C   0  0  0  0  0  0  0  0  0  0  0  0
  -20.3728   -0.7024    8.3660 C   0  0  0  0  0  0  0  0  0  0  0  0
  -19.3809   -1.6287    7.9490 C   0  0  0  0  0  0  0  0  0  0  0  0
  2  4  1  0  0  0  0
  3  5  1  0  0  0  0
  4  7  1  0  0  0  0
  6  1  1  0  0  0  0
  7 10  1  0  0  0  0
  8  6  1  0  0  0  0
  8 11  1  0  0  0  0
  9  6  1  0  0  0  0
 10 13  1  0  0  0  0
 11 14  1  0  0  0  0
 12  9  1  0  0  0  0
 14 12  1  0  0  0  0
 14 15  1  0  0  0  0
 15 16  1  0  0  0  0
 15 17  1  0  0  0  0
 18  2  1  0  0  0  0
 18 23  2  0  0  0  0
 19  1  1  0  0  0  0
 19 18  1  0  0  0  0
 20 19  2  0  0  0  0
 21  3  1  0  0  0  0
 21 20  1  0  0  0  0
 22 21  2  0  0  0  0
 22 23  1  0  0  0  0
M  END
>  <CHROM.1>
-87.14499752,-155.95546518,-157.68530167,64.88066359,53.05911821,-126.21798464
-96.84950855,24.19984864,128.03284943,28.98865808,-103.06989113,-20.47637292
-4.49659413,8.75626350,2.04947568,-0.87525846,2.74416008

>  <Name>
1uui_lig

>  <RI>
0

>  <Rbt.Current_Directory>
/home/itssahil/PROJECTS/Mol_Feturizer/New_Systems/rnas/1uui

>  <Rbt.Executable>
rbdock ($Id: //depot/dev/client3/rdock/2013.1/src/exe/rbdock.cxx#4 $)

>  <Rbt.Library>
libRbt.so (2013.1, Build901 2013/11/27)

>  <Rbt.Parameter_File>
/export/apps/rDock/src/rDock_2013.1_src/data/scripts/dock_solv.prm

>  <Rbt.Receptor>
prm/blind_docking_40.prm

>  <SCORE>
-40.2365

>  <SCORE.INTER>
-33.963

>  <SCORE.INTER.CONST>
1

>  <SCORE.INTER.POLAR>
-4.9847

>  <SCORE.INTER.ROT>
10

>  <SCORE.INTER.SOLV>
7.21221

>  <SCORE.INTER.VDW>
-18.6971

>  <SCORE.INTER.norm>
-1.47665

>  <SCORE.INTRA>
-6.32959

>  <SCORE.INTRA.DIHEDRAL>
-5.37306

>  <SCORE.INTRA.DIHEDRAL.0>
23.4151

>  <SCORE.INTRA.POLAR>
-0.708744

>  <SCORE.INTRA.POLAR.0>
0

>  <SCORE.INTRA.REPUL>
0

>  <SCORE.INTRA.REPUL.0>
0

>  <SCORE.INTRA.SOLV>
0.459509

>  <SCORE.INTRA.SOLV.lig_0>
-17.3568

>  <SCORE.INTRA.VDW>
-1.46309

>  <SCORE.INTRA.VDW.0>
1.0768

>  <SCORE.INTRA.norm>
-0.2752

>  <SCORE.RESTR>
0.0561619

>  <SCORE.RESTR.CAVITY>
0.0561619

>  <SCORE.RESTR.norm>
0.00244182

>  <SCORE.SYSTEM>
0

>  <SCORE.SYSTEM.CONST>
0

>  <SCORE.SYSTEM.DIHEDRAL>
0

>  <SCORE.SYSTEM.SOLV>
0

>  <SCORE.SYSTEM.norm>
0

>  <SCORE.heavy>
23

>  <SCORE.norm>
-1.74941

>  <RMSD>
13.368

$$$$
1uui_lig
 OpenBabel11021811413D
libRbt.so/2013.1/901 2013/11/27
 23 24  0  0  0  0  0  0  0  0999 V2000
  -20.3849   -6.0572    8.6774 C   0  0  0  0  0  0  0  0  0  0  0  0
  -18.5497   -5.2977    6.5545 O   0  0  0  0  0  0  0  0  0  0  0  0
  -20.8936   -1.1353    9.6665 O   0  0  0  0  0  0  0  0  0  0  0  0
  -19.2853   -5.4683    5.3364 C   0  0  0  0  0  0  0  0  0  0  0  0
  -22.0785   -0.6670    9.0177 C   0  0  0  0  0  0  0  0  0  0  0  0
  -19.3109   -6.6822    9.5173 N   0  0  0  0  0  0  0  0  0  0  0  0
  -18.9020   -6.8074    4.7045 C   0  0  0  0  0  0  0  0  0  0  0  0
  -19.4375   -8.1648    9.5392 C   0  0  0  0  0  0  0  0  0  0  0  0
  -19.3536   -6.1604   10.9088 C   0  0  0  0  0  0  0  0  0  0  0  0
  -17.3791   -6.9062    4.5701 C   0  0  0  0  0  0  0  0  0  0  0  0
  -20.7806   -8.6186   10.1360 C   0  0  0  0  0  0  0  0  0  0  0  0
  -20.7070   -6.4477   11.5811 C   0  0  0  0  0  0  0  0  0  0  0  0
  -16.8503   -5.6444    4.0055 N   0  0  0  0  0  0  0  0  0  0  0  0
  -21.4765   -7.5110   10.8630 N   0  0  0  0  0  0  0  0  0  0  0  0
  -22.8625   -7.6116   11.0857 C   0  0  0  0  0  0  0  0  0  0  0  0
  -23.7443   -7.5052   10.0513 N   0  0  0  0  0  0  0  0  0  0  0  0
  -23.3605   -7.6825   12.3532 N   0  0  0  0  0  0  0  0  0  0  0  0
  -19.1361   -4.2552    7.3392 C   0  0  0  0  0  0  0  0  0  0  0  0
  -20.0400   -4.5778    8.3880 C   0  0  0  0  0  0  0  0  0  0  0  0
  -20.6242   -3.5374    9.1627 C   0  0  0  0  0  0  0  0  0  0  0  0
  -20.3039   -2.1802    8.8877 C   0  0  0  0  0  0  0  0  0  0  0  0
  -19.3999   -1.8613    7.8406 C   0  0  0  0  0  0  0  0  0  0  0  0
  -18.8172   -2.8987    7.0660 C   0  0  0  0  0  0  0  0  0  0  0  0
  2  4  1  0  0  0  0
  3  5  1  0  0  0  0
  4  7  1  0  0  0  0
  6  1  1  0  0  0  0
  7 10  1  0  0  0  0
  8  6  1  0  0  0  0
  8 11  1  0  0  0  0
  9  6  1  0  0  0  0
 10 13  1  0  0  0  0
 11 14  1  0  0  0  0
 12  9  1  0  0  0  0
 14 12  1  0  0  0  0
 14 15  1  0  0  0  0
 15 16  1  0  0  0  0
 15 17  1  0  0  0  0
 18  2  1  0  0  0  0
 18 23  2  0  0  0  0
 19  1  1  0  0  0  0
 19 18  1  0  0  0  0
 20 19  2  0  0  0  0
 21  3  1  0  0  0  0
 21 20  1  0  0  0  0
 22 21  2  0  0  0  0
 22 23  1  0  0  0  0
M  END
>  <CHROM.1>
-164.45386589,-52.58596930,-166.27978753,-46.18452034,-14.80473634,-70.08589350
-120.69118462,-92.36761406,97.22762422,81.63876889,-93.30922058,-20.17097054
-5.41552134,8.56700814,-2.72182207,0.94855096,-0.08539882

>  <Name>
1uui_lig

>  <RI>
0

>  <Rbt.Current_Directory>
/home/itssahil/PROJECTS/Mol_Feturizer/New_Systems/rnas/1uui

>  <Rbt.Executable>
rbdock ($Id: //depot/dev/client3/rdock/2013.1/src/exe/rbdock.cxx#4 $)

>  <Rbt.Library>
libRbt.so (2013.1, Build901 2013/11/27)

>  <Rbt.Parameter_File>
/export/apps/rDock/src/rDock_2013.1_src/data/scripts/dock_solv.prm

>  <Rbt.Receptor>
prm/blind_docking_40.prm

>  <SCORE>
-38.8041

>  <SCORE.INTER>
-36.1632

>  <SCORE.INTER.CONST>
1

>  <SCORE.INTER.POLAR>
-5.40962

>  <SCORE.INTER.ROT>
10

>  <SCORE.INTER.SOLV>
9.04193

>  <SCORE.INTER.VDW>
-19.3574

>  <SCORE.INTER.norm>
-1.57231

>  <SCORE.INTRA>
-3.26176

>  <SCORE.INTRA.DIHEDRAL>
-4.11441

>  <SCORE.INTRA.DIHEDRAL.0>
23.4151

>  <SCORE.INTRA.POLAR>
0

>  <SCORE.INTRA.POLAR.0>
0

>  <SCORE.INTRA.REPUL>
0

>  <SCORE.INTRA.REPUL.0>
0

>  <SCORE.INTRA.SOLV>
0.544933

>  <SCORE.INTRA.SOLV.lig_0>
-17.3568

>  <SCORE.INTRA.VDW>
-1.47702

>  <SCORE.INTRA.VDW.0>
1.0768

>  <SCORE.INTRA.norm>
-0.141816

>  <SCORE.RESTR>
0.62091

>  <SCORE.RESTR.CAVITY>
0.62091

>  <SCORE.RESTR.norm>
0.0269961

>  <SCORE.SYSTEM>
0

>  <SCORE.SYSTEM.CONST>
0

>  <SCORE.SYSTEM.DIHEDRAL>
0

>  <SCORE.SYSTEM.SOLV>
0

>  <SCORE.SYSTEM.norm>
0

>  <SCORE.heavy>
23

>  <SCORE.norm>
-1.68713

>  <RMSD>
13.394

$$$$
1uui_lig
 OpenBabel11021811413D
libRbt.so/2013.1/901 2013/11/27
 23 24  0  0  0  0  0  0  0  0999 V2000
  -20.0470   -6.1458    8.0617 C   0  0  0  0  0  0  0  0  0  0  0  0
  -17.8501   -7.9064    7.3369 O   0  0  0  0  0  0  0  0  0  0  0  0
  -22.2432   -7.5015    3.7257 O   0  0  0  0  0  0  0  0  0  0  0  0
  -17.7765   -9.2360    7.8667 C   0  0  0  0  0  0  0  0  0  0  0  0
  -23.3870   -8.1432    4.2950 C   0  0  0  0  0  0  0  0  0  0  0  0
  -20.5075   -4.7411    7.8082 N   0  0  0  0  0  0  0  0  0  0  0  0
  -16.3080   -9.6141    8.0658 C   0  0  0  0  0  0  0  0  0  0  0  0
  -19.7770   -3.7705    8.6679 C   0  0  0  0  0  0  0  0  0  0  0  0
  -21.9695   -4.6105    8.0448 C   0  0  0  0  0  0  0  0  0  0  0  0
  -15.6552   -8.6651    9.0759 C   0  0  0  0  0  0  0  0  0  0  0  0
  -20.0044   -4.0431   10.1645 C   0  0  0  0  0  0  0  0  0  0  0  0
  -22.3451   -4.9776    9.4906 C   0  0  0  0  0  0  0  0  0  0  0  0
  -16.1106   -9.0083   10.4417 N   0  0  0  0  0  0  0  0  0  0  0  0
  -21.1567   -4.9686   10.3994 N   0  0  0  0  0  0  0  0  0  0  0  0
  -21.2362   -5.6551   11.6254 C   0  0  0  0  0  0  0  0  0  0  0  0
  -20.1776   -5.6726   12.4844 N   0  0  0  0  0  0  0  0  0  0  0  0
  -22.3201   -6.4278   11.9215 N   0  0  0  0  0  0  0  0  0  0  0  0
  -18.9517   -7.8002    6.4306 C   0  0  0  0  0  0  0  0  0  0  0  0
  -20.0494   -6.9523    6.7424 C   0  0  0  0  0  0  0  0  0  0  0  0
  -21.1448   -6.8534    5.8400 C   0  0  0  0  0  0  0  0  0  0  0  0
  -21.1401   -7.6007    4.6309 C   0  0  0  0  0  0  0  0  0  0  0  0
  -20.0419   -8.4456    4.3219 C   0  0  0  0  0  0  0  0  0  0  0  0
  -18.9487   -8.5459    5.2221 C   0  0  0  0  0  0  0  0  0  0  0  0
  2  4  1  0  0  0  0
  3  5  1  0  0  0  0
  4  7  1  0  0  0  0
  6  1  1  0  0  0  0
  7 10  1  0  0  0  0
  8  6  1  0  0  0  0
  8 11  1  0  0  0  0
  9  6  1  0  0  0  0
 10 13  1  0  0  0  0
 11 14  1  0  0  0  0
 12  9  1  0  0  0  0
 14 12  1  0  0  0  0
 14 15  1  0  0  0  0
 15 16  1  0  0  0  0
 15 17  1  0  0  0  0
 18  2  1  0  0  0  0
 18 23  2  0  0  0  0
 19  1  1  0  0  0  0
 19 18  1  0  0  0  0
 20 19  2  0  0  0  0
 21  3  1  0  0  0  0
 21 20  1  0  0  0  0
 22 21  2  0  0  0  0
 22 23  1  0  0  0  0
M  END
>  <CHROM.1>
145.10971736,61.72077327,-144.12665849,74.81532999,61.72169022,-11.69530356
-74.20668759,-100.36727182,114.74912585,136.15870039,-70.54539525,-19.95057580
-6.84089225,8.03067736,1.57979014,-0.55351021,1.16835977

>  <Name>
1uui_lig

>  <RI>
0

>  <Rbt.Current_Directory>
/home/itssahil/PROJECTS/Mol_Feturizer/New_Systems/rnas/1uui

>  <Rbt.Executable>
rbdock ($Id: //depot/dev/client3/rdock/2013.1/src/exe/rbdock.cxx#4 $)

>  <Rbt.Library>
libRbt.so (2013.1, Build901 2013/11/27)

>  <Rbt.Parameter_File>
/export/apps/rDock/src/rDock_2013.1_src/data/scripts/dock_solv.prm

>  <Rbt.Receptor>
prm/blind_docking_60.prm

>  <SCORE>
-21.3971

>  <SCORE.INTER>
-19.3672

>  <SCORE.INTER.CONST>
1

>  <SCORE.INTER.POLAR>
-2.7594

>  <SCORE.INTER.ROT>
10

>  <SCORE.INTER.SOLV>
6.87362

>  <SCORE.INTER.VDW>
-16.2714

>  <SCORE.INTER.norm>
-0.842053

>  <SCORE.INTRA>
-2.53568

>  <SCORE.INTRA.DIHEDRAL>
-3.26587

>  <SCORE.INTRA.DIHEDRAL.0>
23.4151

>  <SCORE.INTRA.POLAR>
0

>  <SCORE.INTRA.POLAR.0>
0

>  <SCORE.INTRA.REPUL>
0

>  <SCORE.INTRA.REPUL.0>
0

>  <SCORE.INTRA.SOLV>
0.170944

>  <SCORE.INTRA.SOLV.lig_0>
-17.3568

>  <SCORE.INTRA.VDW>
-0.988212

>  <SCORE.INTRA.VDW.0>
1.0768

>  <SCORE.INTRA.norm>
-0.110247

>  <SCORE.RESTR>
0.505836

>  <SCORE.RESTR.CAVITY>
0.505836

>  <SCORE.RESTR.norm>
0.0219929

>  <SCORE.SYSTEM>
0

>  <SCORE.SYSTEM.CONST>
0

>  <SCORE.SYSTEM.DIHEDRAL>
0

>  <SCORE.SYSTEM.SOLV>
0

>  <SCORE.SYSTEM.norm>
0

>  <SCORE.heavy>
23

>  <SCORE.norm>
-0.930307

>  <RMSD>
13.401

$$$$
1uui_lig
 OpenBabel11021811413D
libRbt.so/2013.1/901 2013/11/27
 23 24  0  0  0  0  0  0  0  0999 V2000
  -19.3988   -6.3020    8.7147 C   0  0  0  0  0  0  0  0  0  0  0  0
  -17.9147   -4.2754    7.2512 O   0  0  0  0  0  0  0  0  0  0  0  0
  -20.0298   -8.6754    4.3067 O   0  0  0  0  0  0  0  0  0  0  0  0
  -18.4693   -3.0458    6.7668 C   0  0  0  0  0  0  0  0  0  0  0  0
  -19.0665   -9.7314    4.2732 C   0  0  0  0  0  0  0  0  0  0  0  0
  -18.7544   -7.4709    9.3986 N   0  0  0  0  0  0  0  0  0  0  0  0
  -19.3476   -2.4299    7.8570 C   0  0  0  0  0  0  0  0  0  0  0  0
  -19.6955   -8.6186    9.5069 C   0  0  0  0  0  0  0  0  0  0  0  0
  -18.2737   -7.0943   10.7542 C   0  0  0  0  0  0  0  0  0  0  0  0
  -20.6537   -3.2202    7.9859 C   0  0  0  0  0  0  0  0  0  0  0  0
  -20.9444   -8.2623   10.3311 C   0  0  0  0  0  0  0  0  0  0  0  0
  -19.4246   -6.5996   11.6470 C   0  0  0  0  0  0  0  0  0  0  0  0
  -21.4146   -2.7291    9.1565 N   0  0  0  0  0  0  0  0  0  0  0  0
  -20.7631   -6.9974   11.1099 N   0  0  0  0  0  0  0  0  0  0  0  0
  -21.9048   -6.3062   11.5563 C   0  0  0  0  0  0  0  0  0  0  0  0
  -22.5683   -5.4489   10.7294 N   0  0  0  0  0  0  0  0  0  0  0  0
  -22.2936   -6.3740   12.8616 N   0  0  0  0  0  0  0  0  0  0  0  0
  -18.4496   -5.3783    6.5139 C   0  0  0  0  0  0  0  0  0  0  0  0
  -19.1820   -6.3945    7.1864 C   0  0  0  0  0  0  0  0  0  0  0  0
  -19.7082   -7.4918    6.4497 C   0  0  0  0  0  0  0  0  0  0  0  0
  -19.5015   -7.5704    5.0456 C   0  0  0  0  0  0  0  0  0  0  0  0
  -18.7709   -6.5535    4.3767 C   0  0  0  0  0  0  0  0  0  0  0  0
  -18.2443   -5.4585    5.1111 C   0  0  0  0  0  0  0  0  0  0  0  0
  2  4  1  0  0  0  0
  3  5  1  0  0  0  0
  4  7  1  0  0  0  0
  6  1  1  0  0  0  0
  7 10  1  0  0  0  0
  8  6  1  0  0  0  0
  8 11  1  0  0  0  0
  9  6  1  0  0  0  0
 10 13  1  0  0  0  0
 11 14  1  0  0  0  0
 12  9  1  0  0  0  0
 14 12  1  0  0  0  0
 14 15  1  0  0  0  0
 15 16  1  0  0  0  0
 15 17  1  0  0  0  0
 18  2  1  0  0  0  0
 18 23  2  0  0  0  0
 19  1  1  0  0  0  0
 19 18  1  0  0  0  0
 20 19  2  0  0  0  0
 21  3  1  0  0  0  0
 21 20  1  0  0  0  0
 22 21  2  0  0  0  0
 22 23  1  0  0  0  0
M  END
>  <CHROM.1>
113.29847273,-73.46499315,-89.33236150,172.62119523,168.23132274,-83.16938496
-31.93040488,-158.89629399,-119.64584227,-117.84275015,-89.66942512,-19.82194221
-6.16545972,8.28192653,2.93949701,1.22183362,0.06549853

>  <Name>
1uui_lig

>  <RI>
0

>  <Rbt.Current_Directory>
/home/itssahil/PROJECTS/Mol_Feturizer/New_Systems/rnas/1uui

>  <Rbt.Executable>
rbdock ($Id: //depot/dev/client3/rdock/2013.1/src/exe/rbdock.cxx#4 $)

>  <Rbt.Library>
libRbt.so (2013.1, Build901 2013/11/27)

>  <Rbt.Parameter_File>
/export/apps/rDock/src/rDock_2013.1_src/data/scripts/dock_solv.prm

>  <Rbt.Receptor>
prm/blind_docking_40.prm

>  <SCORE>
-27.0668

>  <SCORE.INTER>
-23.8989

>  <SCORE.INTER.CONST>
1

>  <SCORE.INTER.POLAR>
-4.06376

>  <SCORE.INTER.ROT>
10

>  <SCORE.INTER.SOLV>
6.8472

>  <SCORE.INTER.VDW>
-14.9358

>  <SCORE.INTER.norm>
-1.03908

>  <SCORE.INTRA>
-3.78259

>  <SCORE.INTRA.DIHEDRAL>
-0.742944

>  <SCORE.INTRA.DIHEDRAL.0>
23.4151

>  <SCORE.INTRA.POLAR>
0

>  <SCORE.INTRA.POLAR.0>
0

>  <SCORE.INTRA.REPUL>
0

>  <SCORE.INTRA.REPUL.0>
0

>  <SCORE.INTRA.SOLV>
0.791695

>  <SCORE.INTRA.SOLV.lig_0>
-17.3568

>  <SCORE.INTRA.VDW>
-3.80697

>  <SCORE.INTRA.VDW.0>
1.0768

>  <SCORE.INTRA.norm>
-0.16446

>  <SCORE.RESTR>
0.614631

>  <SCORE.RESTR.CAVITY>
0.614631

>  <SCORE.RESTR.norm>
0.0267231

>  <SCORE.SYSTEM>
0

>  <SCORE.SYSTEM.CONST>
0

>  <SCORE.SYSTEM.DIHEDRAL>
0

>  <SCORE.SYSTEM.SOLV>
0

>  <SCORE.SYSTEM.norm>
0

>  <SCORE.heavy>
23

>  <SCORE.norm>
-1.17682

>  <RMSD>
13.456

$$$$
1uui_lig
 OpenBabel11021811413D
libRbt.so/2013.1/901 2013/11/27
 23 24  0  0  0  0  0  0  0  0999 V2000
  -21.0693   -6.2640    7.4035 C   0  0  0  0  0  0  0  0  0  0  0  0
  -18.2172   -6.5294    7.8998 O   0  0  0  0  0  0  0  0  0  0  0  0
  -20.1125   -7.5724    2.6249 O   0  0  0  0  0  0  0  0  0  0  0  0
  -17.4469   -7.6431    8.3692 C   0  0  0  0  0  0  0  0  0  0  0  0
  -20.8211   -8.8141    2.6115 C   0  0  0  0  0  0  0  0  0  0  0  0
  -20.9699   -4.7912    7.6690 N   0  0  0  0  0  0  0  0  0  0  0  0
  -18.3880   -8.8111    8.6682 C   0  0  0  0  0  0  0  0  0  0  0  0
  -20.0104   -4.5051    8.7699 C   0  0  0  0  0  0  0  0  0  0  0  0
  -22.3004   -4.2221    8.0104 C   0  0  0  0  0  0  0  0  0  0  0  0
  -18.6527   -9.6111    7.3887 C   0  0  0  0  0  0  0  0  0  0  0  0
  -20.4408   -5.1610   10.0930 C   0  0  0  0  0  0  0  0  0  0  0  0
  -22.8985   -4.8888    9.2610 C   0  0  0  0  0  0  0  0  0  0  0  0
  -20.0783  -10.0058    7.3391 N   0  0  0  0  0  0  0  0  0  0  0  0
  -21.8644   -5.6212   10.0562 N   0  0  0  0  0  0  0  0  0  0  0  0
  -22.2848   -6.5996   10.9763 C   0  0  0  0  0  0  0  0  0  0  0  0
  -23.3360   -6.3647   11.8121 N   0  0  0  0  0  0  0  0  0  0  0  0
  -21.5697   -7.7483   11.1462 N   0  0  0  0  0  0  0  0  0  0  0  0
  -18.6945   -6.7869    6.5761 C   0  0  0  0  0  0  0  0  0  0  0  0
  -20.0813   -6.6706    6.2856 C   0  0  0  0  0  0  0  0  0  0  0  0
  -20.5520   -6.9320    4.9688 C   0  0  0  0  0  0  0  0  0  0  0  0
  -19.6372   -7.3081    3.9480 C   0  0  0  0  0  0  0  0  0  0  0  0
  -18.2528   -7.4221    4.2409 C   0  0  0  0  0  0  0  0  0  0  0  0
  -17.7821   -7.1626    5.5550 C   0  0  0  0  0  0  0  0  0  0  0  0
  2  4  1  0  0  0  0
  3  5  1  0  0  0  0
  4  7  1  0  0  0  0
  6  1  1  0  0  0  0
  7 10  1  0  0  0  0
  8  6  1  0  0  0  0
  8 11  1  0  0  0  0
  9  6  1  0  0  0  0
 10 13  1  0  0  0  0
 11 14  1  0  0  0  0
 12  9  1  0  0  0  0
 14 12  1  0  0  0  0
 14 15  1  0  0  0  0
 15 16  1  0  0  0  0
 15 17  1  0  0  0  0
 18  2  1  0  0  0  0
 18 23  2  0  0  0  0
 19  1  1  0  0  0  0
 19 18  1  0  0  0  0
 20 19  2  0  0  0  0
 21  3  1  0  0  0  0
 21 20  1  0  0  0  0
 22 21  2  0  0  0  0
 22 23  1  0  0  0  0
M  END
>  <CHROM.1>
-72.03555714,85.32455955,-93.19730440,-139.70627912,67.20765430,123.80253462
72.67229043,-19.99412657,126.45596645,76.41876839,-72.24552293,-20.27751445
-6.87693546,7.51765285,2.14975728,-0.80493254,1.68842487

>  <Name>
1uui_lig

>  <RI>
0

>  <Rbt.Current_Directory>
/home/itssahil/PROJECTS/Mol_Feturizer/New_Systems/rnas/1uui

>  <Rbt.Executable>
rbdock ($Id: //depot/dev/client3/rdock/2013.1/src/exe/rbdock.cxx#4 $)

>  <Rbt.Library>
libRbt.so (2013.1, Build901 2013/11/27)

>  <Rbt.Parameter_File>
/export/apps/rDock/src/rDock_2013.1_src/data/scripts/dock_solv.prm

>  <Rbt.Receptor>
prm/blind_docking_60.prm

>  <SCORE>
-13.4593

>  <SCORE.INTER>
-10.247

>  <SCORE.INTER.CONST>
1

>  <SCORE.INTER.POLAR>
-1.72412

>  <SCORE.INTER.ROT>
10

>  <SCORE.INTER.SOLV>
5.35076

>  <SCORE.INTER.VDW>
-13.1345

>  <SCORE.INTER.norm>
-0.445523

>  <SCORE.INTRA>
-3.49951

>  <SCORE.INTRA.DIHEDRAL>
-2.41942

>  <SCORE.INTRA.DIHEDRAL.0>
23.4151

>  <SCORE.INTRA.POLAR>
0

>  <SCORE.INTRA.POLAR.0>
0

>  <SCORE.INTRA.REPUL>
0.00357587

>  <SCORE.INTRA.REPUL.0>
0

>  <SCORE.INTRA.SOLV>
0.768638

>  <SCORE.INTRA.SOLV.lig_0>
-17.3568

>  <SCORE.INTRA.VDW>
-2.69199

>  <SCORE.INTRA.VDW.0>
1.0768

>  <SCORE.INTRA.norm>
-0.152152

>  <SCORE.RESTR>
0.287293

>  <SCORE.RESTR.CAVITY>
0.287293

>  <SCORE.RESTR.norm>
0.012491

>  <SCORE.SYSTEM>
0

>  <SCORE.SYSTEM.CONST>
0

>  <SCORE.SYSTEM.DIHEDRAL>
0

>  <SCORE.SYSTEM.SOLV>
0

>  <SCORE.SYSTEM.norm>
0

>  <SCORE.heavy>
23

>  <SCORE.norm>
-0.585185

>  <RMSD>
13.456

$$$$
1uui_lig
 OpenBabel11021811413D
libRbt.so/2013.1/901 2013/11/27
 23 24  0  0  0  0  0  0  0  0999 V2000
  -20.4592   -5.7580    7.3226 C   0  0  0  0  0  0  0  0  0  0  0  0
  -18.6043   -7.9630    6.9367 O   0  0  0  0  0  0  0  0  0  0  0  0
  -23.0517   -7.5704    3.3911 O   0  0  0  0  0  0  0  0  0  0  0  0
  -18.3586   -9.3377    7.2592 C   0  0  0  0  0  0  0  0  0  0  0  0
  -24.1096   -8.4090    3.8617 C   0  0  0  0  0  0  0  0  0  0  0  0
  -20.7161   -6.3898    8.6584 N   0  0  0  0  0  0  0  0  0  0  0  0
  -16.8534   -9.6029    7.2027 C   0  0  0  0  0  0  0  0  0  0  0  0
  -22.1365   -6.2229    9.0699 C   0  0  0  0  0  0  0  0  0  0  0  0
  -19.8269   -5.8106    9.6997 C   0  0  0  0  0  0  0  0  0  0  0  0
  -16.1899   -9.1337    8.5014 C   0  0  0  0  0  0  0  0  0  0  0  0
  -22.5261   -4.7410    9.2036 C   0  0  0  0  0  0  0  0  0  0  0  0
  -20.0373   -4.2939    9.8457 C   0  0  0  0  0  0  0  0  0  0  0  0
  -16.6004  -10.0195    9.6138 N   0  0  0  0  0  0  0  0  0  0  0  0
  -21.3282   -3.8446    9.2373 N   0  0  0  0  0  0  0  0  0  0  0  0
  -21.4912   -2.4826    8.9230 C   0  0  0  0  0  0  0  0  0  0  0  0
  -20.6991   -1.5344    9.4995 N   0  0  0  0  0  0  0  0  0  0  0  0
  -22.5287   -2.0680    8.1410 N   0  0  0  0  0  0  0  0  0  0  0  0
  -19.7188   -7.8603    6.0459 C   0  0  0  0  0  0  0  0  0  0  0  0
  -20.6531   -6.7992    6.1959 C   0  0  0  0  0  0  0  0  0  0  0  0
  -21.7624   -6.7037    5.3104 C   0  0  0  0  0  0  0  0  0  0  0  0
  -21.9346   -7.6669    4.2794 C   0  0  0  0  0  0  0  0  0  0  0  0
  -20.9993   -8.7245    4.1314 C   0  0  0  0  0  0  0  0  0  0  0  0
  -19.8924   -8.8215    5.0152 C   0  0  0  0  0  0  0  0  0  0  0  0
  2  4  1  0  0  0  0
  3  5  1  0  0  0  0
  4  7  1  0  0  0  0
  6  1  1  0  0  0  0
  7 10  1  0  0  0  0
  8  6  1  0  0  0  0
  8 11  1  0  0  0  0
  9  6  1  0  0  0  0
 10 13  1  0  0  0  0
 11 14  1  0  0  0  0
 12  9  1  0  0  0  0
 14 12  1  0  0  0  0
 14 15  1  0  0  0  0
 15 16  1  0  0  0  0
 15 17  1  0  0  0  0
 18  2  1  0  0  0  0
 18 23  2  0  0  0  0
 19  1  1  0  0  0  0
 19 18  1  0  0  0  0
 20 19  2  0  0  0  0
 21  3  1  0  0  0  0
 21 20  1  0  0  0  0
 22 21  2  0  0  0  0
 22 23  1  0  0  0  0
M  END
>  <CHROM.1>
136.52140050,80.89876581,-92.13779779,69.44912263,143.88167551,148.88583696
-115.57116543,-62.21345072,141.13187371,-69.99786981,-95.74540111,-20.43857578
-6.57548996,7.33661947,2.07600616,-0.65377360,0.72857173

>  <Name>
1uui_lig

>  <RI>
0

>  <Rbt.Current_Directory>
/home/itssahil/PROJECTS/Mol_Feturizer/New_Systems/rnas/1uui

>  <Rbt.Executable>
rbdock ($Id: //depot/dev/client3/rdock/2013.1/src/exe/rbdock.cxx#4 $)

>  <Rbt.Library>
libRbt.so (2013.1, Build901 2013/11/27)

>  <Rbt.Parameter_File>
/export/apps/rDock/src/rDock_2013.1_src/data/scripts/dock_solv.prm

>  <Rbt.Receptor>
prm/blind_docking_60.prm

>  <SCORE>
-26.2286

>  <SCORE.INTER>
-25.9534

>  <SCORE.INTER.CONST>
1

>  <SCORE.INTER.POLAR>
-3.76775

>  <SCORE.INTER.ROT>
10

>  <SCORE.INTER.SOLV>
5.39752

>  <SCORE.INTER.VDW>
-16.8089

>  <SCORE.INTER.norm>
-1.12841

>  <SCORE.INTRA>
-0.588718

>  <SCORE.INTRA.DIHEDRAL>
-0.346722

>  <SCORE.INTRA.DIHEDRAL.0>
23.4151

>  <SCORE.INTRA.POLAR>
0

>  <SCORE.INTRA.POLAR.0>
0

>  <SCORE.INTRA.REPUL>
0

>  <SCORE.INTRA.REPUL.0>
0

>  <SCORE.INTRA.SOLV>
0.314845

>  <SCORE.INTRA.SOLV.lig_0>
-17.3568

>  <SCORE.INTRA.VDW>
-0.572779

>  <SCORE.INTRA.VDW.0>
1.0768

>  <SCORE.INTRA.norm>
-0.0255964

>  <SCORE.RESTR>
0.313556

>  <SCORE.RESTR.CAVITY>
0.313556

>  <SCORE.RESTR.norm>
0.0136329

>  <SCORE.SYSTEM>
0

>  <SCORE.SYSTEM.CONST>
0

>  <SCORE.SYSTEM.DIHEDRAL>
0

>  <SCORE.SYSTEM.SOLV>
0

>  <SCORE.SYSTEM.norm>
0

>  <SCORE.heavy>
23

>  <SCORE.norm>
-1.14037

>  <RMSD>
13.511

$$$$
1uui_lig
 OpenBabel11021811413D
libRbt.so/2013.1/901 2013/11/27
 23 24  0  0  0  0  0  0  0  0999 V2000
  -19.8102   -5.5092    8.7037 C   0  0  0  0  0  0  0  0  0  0  0  0
  -19.0531   -7.7933    7.0724 O   0  0  0  0  0  0  0  0  0  0  0  0
  -16.6798   -7.3005   12.2327 O   0  0  0  0  0  0  0  0  0  0  0  0
  -19.3292   -9.1705    6.7880 C   0  0  0  0  0  0  0  0  0  0  0  0
  -16.5958   -8.5894   12.8457 C   0  0  0  0  0  0  0  0  0  0  0  0
  -19.7196   -5.3725    7.2129 N   0  0  0  0  0  0  0  0  0  0  0  0
  -19.7755   -9.3003    5.3309 C   0  0  0  0  0  0  0  0  0  0  0  0
  -18.8262   -4.2463    6.8276 C   0  0  0  0  0  0  0  0  0  0  0  0
  -21.0653   -5.1643    6.6158 C   0  0  0  0  0  0  0  0  0  0  0  0
  -18.6608   -8.8183    4.3969 C   0  0  0  0  0  0  0  0  0  0  0  0
  -19.3382   -2.8976    7.3613 C   0  0  0  0  0  0  0  0  0  0  0  0
  -21.7404   -3.8967    7.1668 C   0  0  0  0  0  0  0  0  0  0  0  0
  -17.6411   -9.8816    4.2550 N   0  0  0  0  0  0  0  0  0  0  0  0
  -20.7593   -2.9779    7.8237 N   0  0  0  0  0  0  0  0  0  0  0  0
  -21.2387   -2.0001    8.7150 C   0  0  0  0  0  0  0  0  0  0  0  0
  -21.3085   -2.2509   10.0534 N   0  0  0  0  0  0  0  0  0  0  0  0
  -21.7687   -0.8333    8.2488 N   0  0  0  0  0  0  0  0  0  0  0  0
  -18.4618   -7.6696    8.3690 C   0  0  0  0  0  0  0  0  0  0  0  0
  -18.8007   -6.5690    9.2027 C   0  0  0  0  0  0  0  0  0  0  0  0
  -18.2067   -6.4478   10.4897 C   0  0  0  0  0  0  0  0  0  0  0  0
  -17.2775   -7.4250   10.9391 C   0  0  0  0  0  0  0  0  0  0  0  0
  -16.9420   -8.5235   10.1048 C   0  0  0  0  0  0  0  0  0  0  0  0
  -17.5334   -8.6449    8.8198 C   0  0  0  0  0  0  0  0  0  0  0  0
  2  4  1  0  0  0  0
  3  5  1  0  0  0  0
  4  7  1  0  0  0  0
  6  1  1  0  0  0  0
  7 10  1  0  0  0  0
  8  6  1  0  0  0  0
  8 11  1  0  0  0  0
  9  6  1  0  0  0  0
 10 13  1  0  0  0  0
 11 14  1  0  0  0  0
 12  9  1  0  0  0  0
 14 12  1  0  0  0  0
 14 15  1  0  0  0  0
 15 16  1  0  0  0  0
 15 17  1  0  0  0  0
 18  2  1  0  0  0  0
 18 23  2  0  0  0  0
 19  1  1  0  0  0  0
 19 18  1  0  0  0  0
 20 19  2  0  0  0  0
 21  3  1  0  0  0  0
 21 20  1  0  0  0  0
 22 21  2  0  0  0  0
 22 23  1  0  0  0  0
M  END
>  <CHROM.1>
-172.15101178,60.80434992,-95.61483083,79.40947900,-170.09926902,-98.81245975
-1.61385208,-152.32681529,-142.22311258,-31.12251219,140.15366520,-19.17131852
-6.12293406,8.20606432,-2.60153107,1.00783884,-2.17221099

>  <Name>
1uui_lig

>  <RI>
0

>  <Rbt.Current_Directory>
/home/itssahil/PROJECTS/Mol_Feturizer/New_Systems/rnas/1uui

>  <Rbt.Executable>
rbdock ($Id: //depot/dev/client3/rdock/2013.1/src/exe/rbdock.cxx#4 $)

>  <Rbt.Library>
libRbt.so (2013.1, Build901 2013/11/27)

>  <Rbt.Parameter_File>
/export/apps/rDock/src/rDock_2013.1_src/data/scripts/dock_solv.prm

>  <Rbt.Receptor>
prm/blind_docking_100.prm

>  <SCORE>
-24.0388

>  <SCORE.INTER>
-20.3653

>  <SCORE.INTER.CONST>
1

>  <SCORE.INTER.POLAR>
-3.28845

>  <SCORE.INTER.ROT>
10

>  <SCORE.INTER.SOLV>
6.6723

>  <SCORE.INTER.VDW>
-15.1061

>  <SCORE.INTER.norm>
-0.885448

>  <SCORE.INTRA>
-5.78621

>  <SCORE.INTRA.DIHEDRAL>
-11.1671

>  <SCORE.INTRA.DIHEDRAL.0>
23.4151

>  <SCORE.INTRA.POLAR>
-0.775877

>  <SCORE.INTRA.POLAR.0>
0

>  <SCORE.INTRA.REPUL>
0

>  <SCORE.INTRA.REPUL.0>
0

>  <SCORE.INTRA.SOLV>
0.528494

>  <SCORE.INTRA.SOLV.lig_0>
-17.3568

>  <SCORE.INTRA.VDW>
2.17108

>  <SCORE.INTRA.VDW.0>
1.0768

>  <SCORE.INTRA.norm>
-0.251574

>  <SCORE.RESTR>
2.11269

>  <SCORE.RESTR.CAVITY>
2.11269

>  <SCORE.RESTR.norm>
0.091856

>  <SCORE.SYSTEM>
0

>  <SCORE.SYSTEM.CONST>
0

>  <SCORE.SYSTEM.DIHEDRAL>
0

>  <SCORE.SYSTEM.SOLV>
0

>  <SCORE.SYSTEM.norm>
0

>  <SCORE.heavy>
23

>  <SCORE.norm>
-1.04517

>  <RMSD>
13.536

$$$$
1uui_lig
 OpenBabel11021811413D
libRbt.so/2013.1/901 2013/11/27
 23 24  0  0  0  0  0  0  0  0999 V2000
  -20.5029   -6.8690    8.0531 C   0  0  0  0  0  0  0  0  0  0  0  0
  -17.6558   -6.4344    7.6568 O   0  0  0  0  0  0  0  0  0  0  0  0
  -20.7605   -8.0313    3.1496 O   0  0  0  0  0  0  0  0  0  0  0  0
  -16.8472   -7.5299    8.1037 C   0  0  0  0  0  0  0  0  0  0  0  0
  -20.8574   -9.4575    3.1209 C   0  0  0  0  0  0  0  0  0  0  0  0
  -19.9443   -5.6563    8.7364 N   0  0  0  0  0  0  0  0  0  0  0  0
  -17.7435   -8.5716    8.7750 C   0  0  0  0  0  0  0  0  0  0  0  0
  -19.6022   -5.9462   10.1554 C   0  0  0  0  0  0  0  0  0  0  0  0
  -20.9063   -4.5242    8.6797 C   0  0  0  0  0  0  0  0  0  0  0  0
  -16.9062   -9.7756    9.2181 C   0  0  0  0  0  0  0  0  0  0  0  0
  -20.8350   -6.3782   10.9675 C   0  0  0  0  0  0  0  0  0  0  0  0
  -22.2397   -4.8783    9.3601 C   0  0  0  0  0  0  0  0  0  0  0  0
  -15.8096   -9.3168   10.0998 N   0  0  0  0  0  0  0  0  0  0  0  0
  -22.1146   -6.0708   10.2548 N   0  0  0  0  0  0  0  0  0  0  0  0
  -23.2814   -6.7641   10.6267 C   0  0  0  0  0  0  0  0  0  0  0  0
  -23.4403   -7.2299   11.8982 N   0  0  0  0  0  0  0  0  0  0  0  0
  -24.2170   -7.1027    9.6941 N   0  0  0  0  0  0  0  0  0  0  0  0
  -18.4375   -6.8314    6.5265 C   0  0  0  0  0  0  0  0  0  0  0  0
  -19.8338   -7.0563    6.6717 C   0  0  0  0  0  0  0  0  0  0  0  0
  -20.6063   -7.4554    5.5457 C   0  0  0  0  0  0  0  0  0  0  0  0
  -19.9825   -7.6282    4.2802 C   0  0  0  0  0  0  0  0  0  0  0  0
  -18.5883   -7.4016    4.1382 C   0  0  0  0  0  0  0  0  0  0  0  0
  -17.8161   -7.0044    5.2615 C   0  0  0  0  0  0  0  0  0  0  0  0
  2  4  1  0  0  0  0
  3  5  1  0  0  0  0
  4  7  1  0  0  0  0
  6  1  1  0  0  0  0
  7 10  1  0  0  0  0
  8  6  1  0  0  0  0
  8 11  1  0  0  0  0
  9  6  1  0  0  0  0
 10 13  1  0  0  0  0
 11 14  1  0  0  0  0
 12  9  1  0  0  0  0
 14 12  1  0  0  0  0
 14 15  1  0  0  0  0
 15 16  1  0  0  0  0
 15 17  1  0  0  0  0
 18  2  1  0  0  0  0
 18 23  2  0  0  0  0
 19  1  1  0  0  0  0
 19 18  1  0  0  0  0
 20 19  2  0  0  0  0
 21  3  1  0  0  0  0
 21 20  1  0  0  0  0
 22 21  2  0  0  0  0
 22 23  1  0  0  0  0
M  END
>  <CHROM.1>
-71.99383058,178.04804830,-133.65674782,55.80160925,-67.96472991,28.60931594
58.01931095,0.63599618,106.42756961,40.66862300,-85.98208656,-19.96214263
-7.15017539,7.94018462,2.15162633,-0.27645814,1.44993989

>  <Name>
1uui_lig

>  <RI>
0

>  <Rbt.Current_Directory>
/home/itssahil/PROJECTS/Mol_Feturizer/New_Systems/rnas/1uui

>  <Rbt.Executable>
rbdock ($Id: //depot/dev/client3/rdock/2013.1/src/exe/rbdock.cxx#4 $)

>  <Rbt.Library>
libRbt.so (2013.1, Build901 2013/11/27)

>  <Rbt.Parameter_File>
/export/apps/rDock/src/rDock_2013.1_src/data/scripts/dock_solv.prm

>  <Rbt.Receptor>
prm/blind_docking_60.prm

>  <SCORE>
-30.162

>  <SCORE.INTER>
-23.6031

>  <SCORE.INTER.CONST>
1

>  <SCORE.INTER.POLAR>
-3.00422

>  <SCORE.INTER.ROT>
10

>  <SCORE.INTER.SOLV>
9.02461

>  <SCORE.INTER.VDW>
-18.9962

>  <SCORE.INTER.norm>
-1.02622

>  <SCORE.INTRA>
-6.55892

>  <SCORE.INTRA.DIHEDRAL>
-5.99254

>  <SCORE.INTRA.DIHEDRAL.0>
23.4151

>  <SCORE.INTRA.POLAR>
-0.578345

>  <SCORE.INTRA.POLAR.0>
0

>  <SCORE.INTRA.REPUL>
0

>  <SCORE.INTRA.REPUL.0>
0

>  <SCORE.INTRA.SOLV>
0.435472

>  <SCORE.INTRA.SOLV.lig_0>
-17.3568

>  <SCORE.INTRA.VDW>
-1.81402

>  <SCORE.INTRA.VDW.0>
1.0768

>  <SCORE.INTRA.norm>
-0.28517

>  <SCORE.RESTR>
0

>  <SCORE.RESTR.CAVITY>
0

>  <SCORE.RESTR.norm>
0

>  <SCORE.SYSTEM>
0

>  <SCORE.SYSTEM.CONST>
0

>  <SCORE.SYSTEM.DIHEDRAL>
0

>  <SCORE.SYSTEM.SOLV>
0

>  <SCORE.SYSTEM.norm>
0

>  <SCORE.heavy>
23

>  <SCORE.norm>
-1.31139

>  <RMSD>
13.546

$$$$
1uui_lig
 OpenBabel11021811413D
libRbt.so/2013.1/901 2013/11/27
 23 24  0  0  0  0  0  0  0  0999 V2000
  -20.2782   -6.3358    8.4278 C   0  0  0  0  0  0  0  0  0  0  0  0
  -18.6530   -4.0773    7.5853 O   0  0  0  0  0  0  0  0  0  0  0  0
  -19.0749   -8.5250    4.0436 O   0  0  0  0  0  0  0  0  0  0  0  0
  -19.6539   -3.1001    7.2735 C   0  0  0  0  0  0  0  0  0  0  0  0
  -18.4789   -9.6741    4.6504 C   0  0  0  0  0  0  0  0  0  0  0  0
  -19.2818   -6.3115    9.5485 N   0  0  0  0  0  0  0  0  0  0  0  0
  -19.6567   -2.0233    8.3596 C   0  0  0  0  0  0  0  0  0  0  0  0
  -19.2401   -7.6171   10.2616 C   0  0  0  0  0  0  0  0  0  0  0  0
  -19.5971   -5.2278   10.5163 C   0  0  0  0  0  0  0  0  0  0  0  0
  -20.7839   -1.0191    8.0986 C   0  0  0  0  0  0  0  0  0  0  0  0
  -20.5982   -7.9727   10.8900 C   0  0  0  0  0  0  0  0  0  0  0  0
  -20.9960   -5.4056   11.1310 C   0  0  0  0  0  0  0  0  0  0  0  0
  -20.6359    0.1374    9.0102 N   0  0  0  0  0  0  0  0  0  0  0  0
  -21.5195   -6.7946   10.9439 N   0  0  0  0  0  0  0  0  0  0  0  0
  -22.9025   -7.0204   11.0733 C   0  0  0  0  0  0  0  0  0  0  0  0
  -23.4900   -7.0620   12.3029 N   0  0  0  0  0  0  0  0  0  0  0  0
  -23.6611   -7.3358    9.9849 N   0  0  0  0  0  0  0  0  0  0  0  0
  -18.7635   -5.1928    6.6967 C   0  0  0  0  0  0  0  0  0  0  0  0
  -19.5466   -6.3206    7.0655 C   0  0  0  0  0  0  0  0  0  0  0  0
  -19.6498   -7.4295    6.1804 C   0  0  0  0  0  0  0  0  0  0  0  0
  -18.9715   -7.4083    4.9315 C   0  0  0  0  0  0  0  0  0  0  0  0
  -18.1913   -6.2802    4.5655 C   0  0  0  0  0  0  0  0  0  0  0  0
  -18.0867   -5.1734    5.4485 C   0  0  0  0  0  0  0  0  0  0  0  0
  2  4  1  0  0  0  0
  3  5  1  0  0  0  0
  4  7  1  0  0  0  0
  6  1  1  0  0  0  0
  7 10  1  0  0  0  0
  8  6  1  0  0  0  0
  8 11  1  0  0  0  0
  9  6  1  0  0  0  0
 10 13  1  0  0  0  0
 11 14  1  0  0  0  0
 12  9  1  0  0  0  0
 14 12  1  0  0  0  0
 14 15  1  0  0  0  0
 15 16  1  0  0  0  0
 15 17  1  0  0  0  0
 18  2  1  0  0  0  0
 18 23  2  0  0  0  0
 19  1  1  0  0  0  0
 19 18  1  0  0  0  0
 20 19  2  0  0  0  0
 21  3  1  0  0  0  0
 21 20  1  0  0  0  0
 22 21  2  0  0  0  0
 22 23  1  0  0  0  0
M  END
>  <CHROM.1>
171.47968326,-176.11867582,-109.55114892,-170.33661221,159.58323171,92.08119343
147.25753060,51.09662833,-92.91537610,-64.11534660,-64.42123393,-20.12297487
-5.75192147,8.27914258,2.71836347,1.04393196,0.15368128

>  <Name>
1uui_lig

>  <RI>
0

>  <Rbt.Current_Directory>
/home/itssahil/PROJECTS/Mol_Feturizer/New_Systems/rnas/1uui

>  <Rbt.Executable>
rbdock ($Id: //depot/dev/client3/rdock/2013.1/src/exe/rbdock.cxx#4 $)

>  <Rbt.Library>
libRbt.so (2013.1, Build901 2013/11/27)

>  <Rbt.Parameter_File>
/export/apps/rDock/src/rDock_2013.1_src/data/scripts/dock_solv.prm

>  <Rbt.Receptor>
prm/blind_docking_40.prm

>  <SCORE>
-35.4759

>  <SCORE.INTER>
-29.7149

>  <SCORE.INTER.CONST>
1

>  <SCORE.INTER.POLAR>
-4.2974

>  <SCORE.INTER.ROT>
10

>  <SCORE.INTER.SOLV>
8.9039

>  <SCORE.INTER.VDW>
-18.7199

>  <SCORE.INTER.norm>
-1.29195

>  <SCORE.INTRA>
-5.83747

>  <SCORE.INTRA.DIHEDRAL>
-5.23583

>  <SCORE.INTRA.DIHEDRAL.0>
23.4151

>  <SCORE.INTRA.POLAR>
0

>  <SCORE.INTRA.POLAR.0>
0

>  <SCORE.INTRA.REPUL>
0

>  <SCORE.INTRA.REPUL.0>
0

>  <SCORE.INTRA.SOLV>
0.125249

>  <SCORE.INTRA.SOLV.lig_0>
-17.3568

>  <SCORE.INTRA.VDW>
-3.28218

>  <SCORE.INTRA.VDW.0>
1.0768

>  <SCORE.INTRA.norm>
-0.253803

>  <SCORE.RESTR>
0.0764074

>  <SCORE.RESTR.CAVITY>
0.0764074

>  <SCORE.RESTR.norm>
0.00332206

>  <SCORE.SYSTEM>
0

>  <SCORE.SYSTEM.CONST>
0

>  <SCORE.SYSTEM.DIHEDRAL>
0

>  <SCORE.SYSTEM.SOLV>
0

>  <SCORE.SYSTEM.norm>
0

>  <SCORE.heavy>
23

>  <SCORE.norm>
-1.54243

>  <RMSD>
13.555

$$$$
1uui_lig
 OpenBabel11021811413D
libRbt.so/2013.1/901 2013/11/27
 23 24  0  0  0  0  0  0  0  0999 V2000
  -21.3174   -6.4105    7.3171 C   0  0  0  0  0  0  0  0  0  0  0  0
  -20.9885   -9.2184    6.6397 O   0  0  0  0  0  0  0  0  0  0  0  0
  -17.0600   -5.5438    4.7511 O   0  0  0  0  0  0  0  0  0  0  0  0
  -21.2475  -10.2113    5.6392 C   0  0  0  0  0  0  0  0  0  0  0  0
  -17.6379   -4.7036    3.7490 C   0  0  0  0  0  0  0  0  0  0  0  0
  -21.1084   -6.7485    8.7634 N   0  0  0  0  0  0  0  0  0  0  0  0
  -21.8596   -9.5357    4.4112 C   0  0  0  0  0  0  0  0  0  0  0  0
  -22.3934   -6.7263    9.5137 C   0  0  0  0  0  0  0  0  0  0  0  0
  -20.1486   -5.8055    9.3959 C   0  0  0  0  0  0  0  0  0  0  0  0
  -21.0389   -9.8754    3.1629 C   0  0  0  0  0  0  0  0  0  0  0  0
  -23.0557   -5.3384    9.4791 C   0  0  0  0  0  0  0  0  0  0  0  0
  -20.6459   -4.3520    9.3170 C   0  0  0  0  0  0  0  0  0  0  0  0
  -20.6367   -8.6249    2.4810 N   0  0  0  0  0  0  0  0  0  0  0  0
  -22.1097   -4.2745    9.0177 N   0  0  0  0  0  0  0  0  0  0  0  0
  -22.6364   -3.0684    8.5193 C   0  0  0  0  0  0  0  0  0  0  0  0
  -23.5770   -3.0736    7.5324 N   0  0  0  0  0  0  0  0  0  0  0  0
  -22.1229   -1.8686    8.9149 N   0  0  0  0  0  0  0  0  0  0  0  0
  -20.0020   -8.2951    6.1702 C   0  0  0  0  0  0  0  0  0  0  0  0
  -20.1208   -6.9117    6.4757 C   0  0  0  0  0  0  0  0  0  0  0  0
  -19.1396   -5.9966    6.0027 C   0  0  0  0  0  0  0  0  0  0  0  0
  -18.0446   -6.4656    5.2273 C   0  0  0  0  0  0  0  0  0  0  0  0
  -17.9281   -7.8478    4.9250 C   0  0  0  0  0  0  0  0  0  0  0  0
  -18.9073   -8.7619    5.3956 C   0  0  0  0  0  0  0  0  0  0  0  0
  2  4  1  0  0  0  0
  3  5  1  0  0  0  0
  4  7  1  0  0  0  0
  6  1  1  0  0  0  0
  7 10  1  0  0  0  0
  8  6  1  0  0  0  0
  8 11  1  0  0  0  0
  9  6  1  0  0  0  0
 10 13  1  0  0  0  0
 11 14  1  0  0  0  0
 12  9  1  0  0  0  0
 14 12  1  0  0  0  0
 14 15  1  0  0  0  0
 15 16  1  0  0  0  0
 15 17  1  0  0  0  0
 18  2  1  0  0  0  0
 18 23  2  0  0  0  0
 19  1  1  0  0  0  0
 19 18  1  0  0  0  0
 20 19  2  0  0  0  0
 21  3  1  0  0  0  0
 21 20  1  0  0  0  0
 22 21  2  0  0  0  0
 22 23  1  0  0  0  0
M  END
>  <CHROM.1>
-64.33146033,125.35638956,-160.06863318,-125.97156149,-71.53870959,-52.14834674
-15.07946305,-36.80182528,141.61480664,76.18649145,-69.22825433,-20.63101241
-6.46820588,6.62583573,2.04525361,0.68271592,0.48186845

>  <Name>
1uui_lig

>  <RI>
0

>  <Rbt.Current_Directory>
/home/itssahil/PROJECTS/Mol_Feturizer/New_Systems/rnas/1uui

>  <Rbt.Executable>
rbdock ($Id: //depot/dev/client3/rdock/2013.1/src/exe/rbdock.cxx#4 $)

>  <Rbt.Library>
libRbt.so (2013.1, Build901 2013/11/27)

>  <Rbt.Parameter_File>
/export/apps/rDock/src/rDock_2013.1_src/data/scripts/dock_solv.prm

>  <Rbt.Receptor>
prm/blind_docking_60.prm

>  <SCORE>
-19.6522

>  <SCORE.INTER>
-18.5433

>  <SCORE.INTER.CONST>
1

>  <SCORE.INTER.POLAR>
-2.71024

>  <SCORE.INTER.ROT>
10

>  <SCORE.INTER.SOLV>
5.87065

>  <SCORE.INTER.VDW>
-15.5516

>  <SCORE.INTER.norm>
-0.806232

>  <SCORE.INTRA>
-1.10885

>  <SCORE.INTRA.DIHEDRAL>
-0.962933

>  <SCORE.INTRA.DIHEDRAL.0>
23.4151

>  <SCORE.INTRA.POLAR>
0

>  <SCORE.INTRA.POLAR.0>
0

>  <SCORE.INTRA.REPUL>
0

>  <SCORE.INTRA.REPUL.0>
0

>  <SCORE.INTRA.SOLV>
0.478145

>  <SCORE.INTRA.SOLV.lig_0>
-17.3568

>  <SCORE.INTRA.VDW>
-0.866456

>  <SCORE.INTRA.VDW.0>
1.0768

>  <SCORE.INTRA.norm>
-0.0482108

>  <SCORE.RESTR>
0

>  <SCORE.RESTR.CAVITY>
0

>  <SCORE.RESTR.norm>
0

>  <SCORE.SYSTEM>
0

>  <SCORE.SYSTEM.CONST>
0

>  <SCORE.SYSTEM.DIHEDRAL>
0

>  <SCORE.SYSTEM.SOLV>
0

>  <SCORE.SYSTEM.norm>
0

>  <SCORE.heavy>
23

>  <SCORE.norm>
-0.854443

>  <RMSD>
13.555

$$$$
1uui_lig
 OpenBabel11021811413D
libRbt.so/2013.1/901 2013/11/27
 23 24  0  0  0  0  0  0  0  0999 V2000
  -20.2253   -6.4882    7.2775 C   0  0  0  0  0  0  0  0  0  0  0  0
  -18.1403   -7.7652    5.7049 O   0  0  0  0  0  0  0  0  0  0  0  0
  -23.5629   -8.7872    4.2714 O   0  0  0  0  0  0  0  0  0  0  0  0
  -17.5454   -6.8556    4.7706 C   0  0  0  0  0  0  0  0  0  0  0  0
  -24.0782   -7.6822    3.5247 C   0  0  0  0  0  0  0  0  0  0  0  0
  -19.2053   -7.1351    8.1666 N   0  0  0  0  0  0  0  0  0  0  0  0
  -18.0517   -5.4413    5.0585 C   0  0  0  0  0  0  0  0  0  0  0  0
  -19.7032   -8.4296    8.7060 C   0  0  0  0  0  0  0  0  0  0  0  0
  -18.8367   -6.2375    9.2931 C   0  0  0  0  0  0  0  0  0  0  0  0
  -17.1679   -4.4134    4.3448 C   0  0  0  0  0  0  0  0  0  0  0  0
  -20.9730   -8.2485    9.5550 C   0  0  0  0  0  0  0  0  0  0  0  0
  -20.0584   -5.8805   10.1569 C   0  0  0  0  0  0  0  0  0  0  0  0
  -17.2508   -4.6218    2.8818 N   0  0  0  0  0  0  0  0  0  0  0  0
  -21.2021   -6.8172    9.9270 N   0  0  0  0  0  0  0  0  0  0  0  0
  -22.4950   -6.4147   10.3103 C   0  0  0  0  0  0  0  0  0  0  0  0
  -23.5622   -6.6214    9.4873 N   0  0  0  0  0  0  0  0  0  0  0  0
  -22.6896   -5.6907   11.4494 N   0  0  0  0  0  0  0  0  0  0  0  0
  -19.5015   -8.0171    5.3446 C   0  0  0  0  0  0  0  0  0  0  0  0
  -20.5556   -7.4153    6.0849 C   0  0  0  0  0  0  0  0  0  0  0  0
  -21.9080   -7.6724    5.7257 C   0  0  0  0  0  0  0  0  0  0  0  0
  -22.2025   -8.5284    4.6299 C   0  0  0  0  0  0  0  0  0  0  0  0
  -21.1477   -9.1267    3.8919 C   0  0  0  0  0  0  0  0  0  0  0  0
  -19.7977   -8.8718    4.2501 C   0  0  0  0  0  0  0  0  0  0  0  0
  2  4  1  0  0  0  0
  3  5  1  0  0  0  0
  4  7  1  0  0  0  0
  6  1  1  0  0  0  0
  7 10  1  0  0  0  0
  8  6  1  0  0  0  0
  8 11  1  0  0  0  0
  9  6  1  0  0  0  0
 10 13  1  0  0  0  0
 11 14  1  0  0  0  0
 12  9  1  0  0  0  0
 14 12  1  0  0  0  0
 14 15  1  0  0  0  0
 15 16  1  0  0  0  0
 15 17  1  0  0  0  0
 18  2  1  0  0  0  0
 18 23  2  0  0  0  0
 19  1  1  0  0  0  0
 19 18  1  0  0  0  0
 20 19  2  0  0  0  0
 21  3  1  0  0  0  0
 21 20  1  0  0  0  0
 22 21  2  0  0  0  0
 22 23  1  0  0  0  0
M  END
>  <CHROM.1>
75.87273023,164.83966670,-59.96017412,62.30259911,176.05725936,-55.94989045
-17.92261955,-178.92034538,-104.75695726,-47.63668952,79.07639215,-20.42825701
-7.04773999,6.74432598,-2.04945262,-0.40753466,-1.77934257

>  <Name>
1uui_lig

>  <RI>
0

>  <Rbt.Current_Directory>
/home/itssahil/PROJECTS/Mol_Feturizer/New_Systems/rnas/1uui

>  <Rbt.Executable>
rbdock ($Id: //depot/dev/client3/rdock/2013.1/src/exe/rbdock.cxx#4 $)

>  <Rbt.Library>
libRbt.so (2013.1, Build901 2013/11/27)

>  <Rbt.Parameter_File>
/export/apps/rDock/src/rDock_2013.1_src/data/scripts/dock_solv.prm

>  <Rbt.Receptor>
prm/blind_docking_60.prm

>  <SCORE>
-32.0869

>  <SCORE.INTER>
-23.7038

>  <SCORE.INTER.CONST>
1

>  <SCORE.INTER.POLAR>
-3.86028

>  <SCORE.INTER.ROT>
10

>  <SCORE.INTER.SOLV>
7.18873

>  <SCORE.INTER.VDW>
-15.5979

>  <SCORE.INTER.norm>
-1.0306

>  <SCORE.INTRA>
-8.40124

>  <SCORE.INTRA.DIHEDRAL>
-7.86204

>  <SCORE.INTRA.DIHEDRAL.0>
23.4151

>  <SCORE.INTRA.POLAR>
-0.612923

>  <SCORE.INTRA.POLAR.0>
0

>  <SCORE.INTRA.REPUL>
0

>  <SCORE.INTRA.REPUL.0>
0

>  <SCORE.INTRA.SOLV>
0.533457

>  <SCORE.INTRA.SOLV.lig_0>
-17.3568

>  <SCORE.INTRA.VDW>
-2.65301

>  <SCORE.INTRA.VDW.0>
1.0768

>  <SCORE.INTRA.norm>
-0.365271

>  <SCORE.RESTR>
0.0181549

>  <SCORE.RESTR.CAVITY>
0.0181549

>  <SCORE.RESTR.norm>
0.000789345

>  <SCORE.SYSTEM>
0

>  <SCORE.SYSTEM.CONST>
0

>  <SCORE.SYSTEM.DIHEDRAL>
0

>  <SCORE.SYSTEM.SOLV>
0

>  <SCORE.SYSTEM.norm>
0

>  <SCORE.heavy>
23

>  <SCORE.norm>
-1.39508

>  <RMSD>
13.577

$$$$
1uui_lig
 OpenBabel11021811413D
libRbt.so/2013.1/901 2013/11/27
 23 24  0  0  0  0  0  0  0  0999 V2000
  -18.9774   -6.4630    8.5951 C   0  0  0  0  0  0  0  0  0  0  0  0
  -18.7905   -9.2993    7.9855 O   0  0  0  0  0  0  0  0  0  0  0  0
  -17.0008   -5.6007    4.0332 O   0  0  0  0  0  0  0  0  0  0  0  0
  -20.0536   -9.8540    7.5968 C   0  0  0  0  0  0  0  0  0  0  0  0
  -18.1009   -4.7952    3.6030 C   0  0  0  0  0  0  0  0  0  0  0  0
  -19.5741   -5.0982    8.4198 N   0  0  0  0  0  0  0  0  0  0  0  0
  -19.8217  -10.9271    6.5319 C   0  0  0  0  0  0  0  0  0  0  0  0
  -20.0249   -4.5353    9.7216 C   0  0  0  0  0  0  0  0  0  0  0  0
  -20.7198   -5.1370    7.4731 C   0  0  0  0  0  0  0  0  0  0  0  0
  -21.1517  -11.3074    5.8734 C   0  0  0  0  0  0  0  0  0  0  0  0
  -21.1081   -5.4061   10.3805 C   0  0  0  0  0  0  0  0  0  0  0  0
  -21.8313   -6.0794    7.9660 C   0  0  0  0  0  0  0  0  0  0  0  0
  -21.6099  -10.1971    5.0086 N   0  0  0  0  0  0  0  0  0  0  0  0
  -21.6964   -6.3938    9.4224 N   0  0  0  0  0  0  0  0  0  0  0  0
  -22.3583   -7.5248    9.9354 C   0  0  0  0  0  0  0  0  0  0  0  0
  -23.7185   -7.6120    9.9006 N   0  0  0  0  0  0  0  0  0  0  0  0
  -21.6665   -8.4952   10.5982 N   0  0  0  0  0  0  0  0  0  0  0  0
  -18.3385   -8.3696    6.9969 C   0  0  0  0  0  0  0  0  0  0  0  0
  -18.4108   -6.9724    7.2495 C   0  0  0  0  0  0  0  0  0  0  0  0
  -17.9642   -6.0514    6.2615 C   0  0  0  0  0  0  0  0  0  0  0  0
  -17.4476   -6.5283    5.0262 C   0  0  0  0  0  0  0  0  0  0  0  0
  -17.3756   -7.9241    4.7774 C   0  0  0  0  0  0  0  0  0  0  0  0
  -17.8220   -8.8442    5.7622 C   0  0  0  0  0  0  0  0  0  0  0  0
  2  4  1  0  0  0  0
  3  5  1  0  0  0  0
  4  7  1  0  0  0  0
  6  1  1  0  0  0  0
  7 10  1  0  0  0  0
  8  6  1  0  0  0  0
  8 11  1  0  0  0  0
  9  6  1  0  0  0  0
 10 13  1  0  0  0  0
 11 14  1  0  0  0  0
 12  9  1  0  0  0  0
 14 12  1  0  0  0  0
 14 15  1  0  0  0  0
 15 16  1  0  0  0  0
 15 17  1  0  0  0  0
 18  2  1  0  0  0  0
 18 23  2  0  0  0  0
 19  1  1  0  0  0  0
 19 18  1  0  0  0  0
 20 19  2  0  0  0  0
 21  3  1  0  0  0  0
 21 20  1  0  0  0  0
 22 21  2  0  0  0  0
 22 23  1  0  0  0  0
M  END
>  <CHROM.1>
77.97122577,-167.17341595,-175.23712902,71.54590290,60.61397622,105.74027025
114.33608032,52.43751182,105.13883485,-152.51116045,-62.75760763,-19.87393811
-7.38341391,7.36596215,-2.81690384,-0.83047688,-2.71273420

>  <Name>
1uui_lig

>  <RI>
0

>  <Rbt.Current_Directory>
/home/itssahil/PROJECTS/Mol_Feturizer/New_Systems/rnas/1uui

>  <Rbt.Executable>
rbdock ($Id: //depot/dev/client3/rdock/2013.1/src/exe/rbdock.cxx#4 $)

>  <Rbt.Library>
libRbt.so (2013.1, Build901 2013/11/27)

>  <Rbt.Parameter_File>
/export/apps/rDock/src/rDock_2013.1_src/data/scripts/dock_solv.prm

>  <Rbt.Receptor>
prm/blind_docking_60.prm

>  <SCORE>
-18.2307

>  <SCORE.INTER>
-12.7565

>  <SCORE.INTER.CONST>
1

>  <SCORE.INTER.POLAR>
-1.74833

>  <SCORE.INTER.ROT>
10

>  <SCORE.INTER.SOLV>
6.71282

>  <SCORE.INTER.VDW>
-15.1808

>  <SCORE.INTER.norm>
-0.55463

>  <SCORE.INTRA>
-5.58708

>  <SCORE.INTRA.DIHEDRAL>
-8.1817

>  <SCORE.INTRA.DIHEDRAL.0>
23.4151

>  <SCORE.INTRA.POLAR>
0

>  <SCORE.INTRA.POLAR.0>
0

>  <SCORE.INTRA.REPUL>
0

>  <SCORE.INTRA.REPUL.0>
0

>  <SCORE.INTRA.SOLV>
0.450312

>  <SCORE.INTRA.SOLV.lig_0>
-17.3568

>  <SCORE.INTRA.VDW>
-1.72139

>  <SCORE.INTRA.VDW.0>
1.0768

>  <SCORE.INTRA.norm>
-0.242916

>  <SCORE.RESTR>
0.112835

>  <SCORE.RESTR.CAVITY>
0.112835

>  <SCORE.RESTR.norm>
0.00490589

>  <SCORE.SYSTEM>
0

>  <SCORE.SYSTEM.CONST>
0

>  <SCORE.SYSTEM.DIHEDRAL>
0

>  <SCORE.SYSTEM.SOLV>
0

>  <SCORE.SYSTEM.norm>
0

>  <SCORE.heavy>
23

>  <SCORE.norm>
-0.792641

>  <RMSD>
13.594

$$$$
1uui_lig
 OpenBabel11021811413D
libRbt.so/2013.1/901 2013/11/27
 23 24  0  0  0  0  0  0  0  0999 V2000
  -20.9100   -6.0881    7.9017 C   0  0  0  0  0  0  0  0  0  0  0  0
  -18.7891   -8.0465    7.5584 O   0  0  0  0  0  0  0  0  0  0  0  0
  -23.4238   -8.5345    4.2743 O   0  0  0  0  0  0  0  0  0  0  0  0
  -17.7116   -7.4699    6.8097 C   0  0  0  0  0  0  0  0  0  0  0  0
  -23.5180   -7.4024    3.4062 C   0  0  0  0  0  0  0  0  0  0  0  0
  -21.5847   -6.4881    9.1801 N   0  0  0  0  0  0  0  0  0  0  0  0
  -18.1089   -6.0612    6.3660 C   0  0  0  0  0  0  0  0  0  0  0  0
  -22.9443   -5.8915    9.2822 C   0  0  0  0  0  0  0  0  0  0  0  0
  -20.7747   -6.0805   10.3583 C   0  0  0  0  0  0  0  0  0  0  0  0
  -17.6553   -5.8193    4.9228 C   0  0  0  0  0  0  0  0  0  0  0  0
  -22.8999   -4.3541    9.2723 C   0  0  0  0  0  0  0  0  0  0  0  0
  -20.5543   -4.5586   10.3960 C   0  0  0  0  0  0  0  0  0  0  0  0
  -18.5385   -6.5625    3.9964 N   0  0  0  0  0  0  0  0  0  0  0  0
  -21.5198   -3.8291    9.5164 N   0  0  0  0  0  0  0  0  0  0  0  0
  -21.2147   -2.5136    9.1202 C   0  0  0  0  0  0  0  0  0  0  0  0
  -22.1186   -1.5070    9.2900 N   0  0  0  0  0  0  0  0  0  0  0  0
  -20.0663   -2.2410    8.4372 N   0  0  0  0  0  0  0  0  0  0  0  0
  -19.9513   -8.1646    6.7328 C   0  0  0  0  0  0  0  0  0  0  0  0
  -21.0150   -7.2307    6.8651 C   0  0  0  0  0  0  0  0  0  0  0  0
  -22.1708   -7.3549    6.0450 C   0  0  0  0  0  0  0  0  0  0  0  0
  -22.2601   -8.4100    5.0968 C   0  0  0  0  0  0  0  0  0  0  0  0
  -21.1958   -9.3403    4.9662 C   0  0  0  0  0  0  0  0  0  0  0  0
  -20.0423   -9.2180    5.7849 C   0  0  0  0  0  0  0  0  0  0  0  0
  2  4  1  0  0  0  0
  3  5  1  0  0  0  0
  4  7  1  0  0  0  0
  6  1  1  0  0  0  0
  7 10  1  0  0  0  0
  8  6  1  0  0  0  0
  8 11  1  0  0  0  0
  9  6  1  0  0  0  0
 10 13  1  0  0  0  0
 11 14  1  0  0  0  0
 12  9  1  0  0  0  0
 14 12  1  0  0  0  0
 14 15  1  0  0  0  0
 15 16  1  0  0  0  0
 15 17  1  0  0  0  0
 18  2  1  0  0  0  0
 18 23  2  0  0  0  0
 19  1  1  0  0  0  0
 19 18  1  0  0  0  0
 20 19  2  0  0  0  0
 21  3  1  0  0  0  0
 21 20  1  0  0  0  0
 22 21  2  0  0  0  0
 22 23  1  0  0  0  0
M  END
>  <CHROM.1>
62.17923939,-138.62440880,-100.23594706,74.28612072,-52.19959402,39.81556294
115.80763148,59.39372501,-102.45927655,-94.91250580,64.99295907,-20.81376146
-6.16322044,7.19232171,1.67291894,0.08321943,0.76334148

>  <Name>
1uui_lig

>  <RI>
0

>  <Rbt.Current_Directory>
/home/itssahil/PROJECTS/Mol_Feturizer/New_Systems/rnas/1uui

>  <Rbt.Executable>
rbdock ($Id: //depot/dev/client3/rdock/2013.1/src/exe/rbdock.cxx#4 $)

>  <Rbt.Library>
libRbt.so (2013.1, Build901 2013/11/27)

>  <Rbt.Parameter_File>
/export/apps/rDock/src/rDock_2013.1_src/data/scripts/dock_solv.prm

>  <Rbt.Receptor>
prm/blind_docking_60.prm

>  <SCORE>
-21.1636

>  <SCORE.INTER>
-17.9574

>  <SCORE.INTER.CONST>
1

>  <SCORE.INTER.POLAR>
-2.99618

>  <SCORE.INTER.ROT>
10

>  <SCORE.INTER.SOLV>
7.36592

>  <SCORE.INTER.VDW>
-14.7063

>  <SCORE.INTER.norm>
-0.780755

>  <SCORE.INTRA>
-3.60876

>  <SCORE.INTRA.DIHEDRAL>
-2.62841

>  <SCORE.INTRA.DIHEDRAL.0>
23.4151

>  <SCORE.INTRA.POLAR>
0

>  <SCORE.INTRA.POLAR.0>
0

>  <SCORE.INTRA.REPUL>
0

>  <SCORE.INTRA.REPUL.0>
0

>  <SCORE.INTRA.SOLV>
0.540876

>  <SCORE.INTRA.SOLV.lig_0>
-17.3568

>  <SCORE.INTRA.VDW>
-2.56499

>  <SCORE.INTRA.VDW.0>
1.0768

>  <SCORE.INTRA.norm>
-0.156903

>  <SCORE.RESTR>
0.402495

>  <SCORE.RESTR.CAVITY>
0.402495

>  <SCORE.RESTR.norm>
0.0174998

>  <SCORE.SYSTEM>
0

>  <SCORE.SYSTEM.CONST>
0

>  <SCORE.SYSTEM.DIHEDRAL>
0

>  <SCORE.SYSTEM.SOLV>
0

>  <SCORE.SYSTEM.norm>
0

>  <SCORE.heavy>
23

>  <SCORE.norm>
-0.920158

>  <RMSD>
13.634

$$$$
1uui_lig
 OpenBabel11021811413D
libRbt.so/2013.1/901 2013/11/27
 23 24  0  0  0  0  0  0  0  0999 V2000
  -19.0895   -6.1857    9.1909 C   0  0  0  0  0  0  0  0  0  0  0  0
  -19.3862   -3.5704    7.9567 O   0  0  0  0  0  0  0  0  0  0  0  0
  -17.2839   -7.8004    4.7644 O   0  0  0  0  0  0  0  0  0  0  0  0
  -20.1738   -2.6886    7.1466 C   0  0  0  0  0  0  0  0  0  0  0  0
  -18.3288   -8.7200    4.4380 C   0  0  0  0  0  0  0  0  0  0  0  0
  -18.5810   -7.5250    9.6349 N   0  0  0  0  0  0  0  0  0  0  0  0
  -21.0104   -1.7877    8.0564 C   0  0  0  0  0  0  0  0  0  0  0  0
  -19.5069   -8.6161    9.2264 C   0  0  0  0  0  0  0  0  0  0  0  0
  -18.3934   -7.5600   11.1093 C   0  0  0  0  0  0  0  0  0  0  0  0
  -22.3535   -1.4729    7.3900 C   0  0  0  0  0  0  0  0  0  0  0  0
  -20.9032   -8.4487    9.8495 C   0  0  0  0  0  0  0  0  0  0  0  0
  -19.7099   -7.2830   11.8553 C   0  0  0  0  0  0  0  0  0  0  0  0
  -23.1559   -0.6056    8.2814 N   0  0  0  0  0  0  0  0  0  0  0  0
  -20.9041   -7.4583   10.9713 N   0  0  0  0  0  0  0  0  0  0  0  0
  -22.1233   -6.8693   11.3551 C   0  0  0  0  0  0  0  0  0  0  0  0
  -23.3124   -7.4384   11.0072 N   0  0  0  0  0  0  0  0  0  0  0  0
  -22.1457   -5.6498   11.9649 N   0  0  0  0  0  0  0  0  0  0  0  0
  -18.8626   -4.6342    7.1565 C   0  0  0  0  0  0  0  0  0  0  0  0
  -18.6987   -5.9305    7.7167 C   0  0  0  0  0  0  0  0  0  0  0  0
  -18.1733   -6.9843    6.9184 C   0  0  0  0  0  0  0  0  0  0  0  0
  -17.8138   -6.7401    5.5651 C   0  0  0  0  0  0  0  0  0  0  0  0
  -17.9798   -5.4449    5.0082 C   0  0  0  0  0  0  0  0  0  0  0  0
  -18.5031   -4.3922    5.8043 C   0  0  0  0  0  0  0  0  0  0  0  0
  2  4  1  0  0  0  0
  3  5  1  0  0  0  0
  4  7  1  0  0  0  0
  6  1  1  0  0  0  0
  7 10  1  0  0  0  0
  8  6  1  0  0  0  0
  8 11  1  0  0  0  0
  9  6  1  0  0  0  0
 10 13  1  0  0  0  0
 11 14  1  0  0  0  0
 12  9  1  0  0  0  0
 14 12  1  0  0  0  0
 14 15  1  0  0  0  0
 15 16  1  0  0  0  0
 15 17  1  0  0  0  0
 18  2  1  0  0  0  0
 18 23  2  0  0  0  0
 19  1  1  0  0  0  0
 19 18  1  0  0  0  0
 20 19  2  0  0  0  0
 21  3  1  0  0  0  0
 21 20  1  0  0  0  0
 22 21  2  0  0  0  0
 22 23  1  0  0  0  0
M  END
>  <CHROM.1>
165.36354851,-146.70187375,-82.90418901,179.77662558,82.85761347,18.66665262
-138.52739036,25.06928544,-146.15760602,-168.71374877,72.56998402,-19.91764684
-5.78768720,8.41205974,-0.16078587,-0.89025511,2.48692460

>  <Name>
1uui_lig

>  <RI>
0

>  <Rbt.Current_Directory>
/home/itssahil/PROJECTS/Mol_Feturizer/New_Systems/rnas/1uui

>  <Rbt.Executable>
rbdock ($Id: //depot/dev/client3/rdock/2013.1/src/exe/rbdock.cxx#4 $)

>  <Rbt.Library>
libRbt.so (2013.1, Build901 2013/11/27)

>  <Rbt.Parameter_File>
/export/apps/rDock/src/rDock_2013.1_src/data/scripts/dock_solv.prm

>  <Rbt.Receptor>
prm/blind_docking_40.prm

>  <SCORE>
-22.5165

>  <SCORE.INTER>
-21.0148

>  <SCORE.INTER.CONST>
1

>  <SCORE.INTER.POLAR>
-3.14567

>  <SCORE.INTER.ROT>
10

>  <SCORE.INTER.SOLV>
7.1396

>  <SCORE.INTER.VDW>
-16.1708

>  <SCORE.INTER.norm>
-0.913686

>  <SCORE.INTRA>
-2.01458

>  <SCORE.INTRA.DIHEDRAL>
-6.70985

>  <SCORE.INTRA.DIHEDRAL.0>
23.4151

>  <SCORE.INTRA.POLAR>
0

>  <SCORE.INTRA.POLAR.0>
0

>  <SCORE.INTRA.REPUL>
0

>  <SCORE.INTRA.REPUL.0>
0

>  <SCORE.INTRA.SOLV>
-0.070236

>  <SCORE.INTRA.SOLV.lig_0>
-17.3568

>  <SCORE.INTRA.VDW>
1.37546

>  <SCORE.INTRA.VDW.0>
1.0768

>  <SCORE.INTRA.norm>
-0.0875904

>  <SCORE.RESTR>
0.512873

>  <SCORE.RESTR.CAVITY>
0.512873

>  <SCORE.RESTR.norm>
0.0222988

>  <SCORE.SYSTEM>
0

>  <SCORE.SYSTEM.CONST>
0

>  <SCORE.SYSTEM.DIHEDRAL>
0

>  <SCORE.SYSTEM.SOLV>
0

>  <SCORE.SYSTEM.norm>
0

>  <SCORE.heavy>
23

>  <SCORE.norm>
-0.978977

>  <RMSD>
13.636

$$$$
1uui_lig
 OpenBabel11021811413D
libRbt.so/2013.1/901 2013/11/27
 23 24  0  0  0  0  0  0  0  0999 V2000
  -20.4865   -5.8950    7.5989 C   0  0  0  0  0  0  0  0  0  0  0  0
  -19.3056   -8.5333    7.9093 O   0  0  0  0  0  0  0  0  0  0  0  0
  -22.7111   -7.6491    3.4232 O   0  0  0  0  0  0  0  0  0  0  0  0
  -17.9824   -8.0605    7.6270 C   0  0  0  0  0  0  0  0  0  0  0  0
  -24.0312   -8.1027    3.7325 C   0  0  0  0  0  0  0  0  0  0  0  0
  -20.7632   -6.3670    8.9953 N   0  0  0  0  0  0  0  0  0  0  0  0
  -17.2777   -7.7312    8.9439 C   0  0  0  0  0  0  0  0  0  0  0  0
  -22.1847   -6.1369    9.3709 C   0  0  0  0  0  0  0  0  0  0  0  0
  -19.8753   -5.6838    9.9727 C   0  0  0  0  0  0  0  0  0  0  0  0
  -17.0039   -9.0189    9.7275 C   0  0  0  0  0  0  0  0  0  0  0  0
  -22.5557   -4.6447    9.3309 C   0  0  0  0  0  0  0  0  0  0  0  0
  -20.0667   -4.1578    9.9427 C   0  0  0  0  0  0  0  0  0  0  0  0
  -15.9527   -9.8014    9.0397 N   0  0  0  0  0  0  0  0  0  0  0  0
  -21.3462   -3.7651    9.2742 N   0  0  0  0  0  0  0  0  0  0  0  0
  -21.4884   -2.4459    8.8051 C   0  0  0  0  0  0  0  0  0  0  0  0
  -22.7191   -1.9415    8.5051 N   0  0  0  0  0  0  0  0  0  0  0  0
  -20.3923   -1.6893    8.5125 N   0  0  0  0  0  0  0  0  0  0  0  0
  -20.1573   -8.3079    6.7823 C   0  0  0  0  0  0  0  0  0  0  0  0
  -20.7581   -7.0340    6.5890 C   0  0  0  0  0  0  0  0  0  0  0  0
  -21.6081   -6.8160    5.4692 C   0  0  0  0  0  0  0  0  0  0  0  0
  -21.8547   -7.8696    4.5476 C   0  0  0  0  0  0  0  0  0  0  0  0
  -21.2523   -9.1402    4.7427 C   0  0  0  0  0  0  0  0  0  0  0  0
  -20.4047   -9.3593    5.8604 C   0  0  0  0  0  0  0  0  0  0  0  0
  2  4  1  0  0  0  0
  3  5  1  0  0  0  0
  4  7  1  0  0  0  0
  6  1  1  0  0  0  0
  7 10  1  0  0  0  0
  8  6  1  0  0  0  0
  8 11  1  0  0  0  0
  9  6  1  0  0  0  0
 10 13  1  0  0  0  0
 11 14  1  0  0  0  0
 12  9  1  0  0  0  0
 14 12  1  0  0  0  0
 14 15  1  0  0  0  0
 15 16  1  0  0  0  0
 15 17  1  0  0  0  0
 18  2  1  0  0  0  0
 18 23  2  0  0  0  0
 19  1  1  0  0  0  0
 19 18  1  0  0  0  0
 20 19  2  0  0  0  0
 21  3  1  0  0  0  0
 21 20  1  0  0  0  0
 22 21  2  0  0  0  0
 22 23  1  0  0  0  0
M  END
>  <CHROM.1>
155.32183807,68.55614334,-89.10264913,70.15378833,167.20194776,5.04061889
158.16478727,-44.35430887,-82.69298586,-52.01093042,-96.21639382,-20.49906669
-6.49861964,7.63367013,2.00612079,-0.67146764,0.65349246

>  <Name>
1uui_lig

>  <RI>
0

>  <Rbt.Current_Directory>
/home/itssahil/PROJECTS/Mol_Feturizer/New_Systems/rnas/1uui

>  <Rbt.Executable>
rbdock ($Id: //depot/dev/client3/rdock/2013.1/src/exe/rbdock.cxx#4 $)

>  <Rbt.Library>
libRbt.so (2013.1, Build901 2013/11/27)

>  <Rbt.Parameter_File>
/export/apps/rDock/src/rDock_2013.1_src/data/scripts/dock_solv.prm

>  <Rbt.Receptor>
prm/blind_docking_60.prm

>  <SCORE>
-22.2749

>  <SCORE.INTER>
-16.4429

>  <SCORE.INTER.CONST>
1

>  <SCORE.INTER.POLAR>
-1.68572

>  <SCORE.INTER.ROT>
10

>  <SCORE.INTER.SOLV>
5.11044

>  <SCORE.INTER.VDW>
-17.313

>  <SCORE.INTER.norm>
-0.714908

>  <SCORE.INTRA>
-5.95576

>  <SCORE.INTRA.DIHEDRAL>
-4.23437

>  <SCORE.INTRA.DIHEDRAL.0>
23.4151

>  <SCORE.INTRA.POLAR>
-0.509134

>  <SCORE.INTRA.POLAR.0>
0

>  <SCORE.INTRA.REPUL>
0

>  <SCORE.INTRA.REPUL.0>
0

>  <SCORE.INTRA.SOLV>
0.526459

>  <SCORE.INTRA.SOLV.lig_0>
-17.3568

>  <SCORE.INTRA.VDW>
-2.37075

>  <SCORE.INTRA.VDW.0>
1.0768

>  <SCORE.INTRA.norm>
-0.258946

>  <SCORE.RESTR>
0.123786

>  <SCORE.RESTR.CAVITY>
0.123786

>  <SCORE.RESTR.norm>
0.00538201

>  <SCORE.SYSTEM>
0

>  <SCORE.SYSTEM.CONST>
0

>  <SCORE.SYSTEM.DIHEDRAL>
0

>  <SCORE.SYSTEM.SOLV>
0

>  <SCORE.SYSTEM.norm>
0

>  <SCORE.heavy>
23

>  <SCORE.norm>
-0.968473

>  <RMSD>
13.680

$$$$
1uui_lig
 OpenBabel11021811413D
libRbt.so/2013.1/901 2013/11/27
 23 24  0  0  0  0  0  0  0  0999 V2000
  -20.1169   -6.0955    7.8774 C   0  0  0  0  0  0  0  0  0  0  0  0
  -19.6421   -8.9341    8.2883 O   0  0  0  0  0  0  0  0  0  0  0  0
  -22.2524   -7.3378    3.4776 O   0  0  0  0  0  0  0  0  0  0  0  0
  -18.2842   -9.3019    8.0148 C   0  0  0  0  0  0  0  0  0  0  0  0
  -21.5520   -7.8735    2.3522 C   0  0  0  0  0  0  0  0  0  0  0  0
  -20.3031   -6.6329    9.2653 N   0  0  0  0  0  0  0  0  0  0  0  0
  -17.6505   -9.8583    9.2907 C   0  0  0  0  0  0  0  0  0  0  0  0
  -21.7309   -6.5716    9.6804 C   0  0  0  0  0  0  0  0  0  0  0  0
  -19.4702   -5.8822   10.2416 C   0  0  0  0  0  0  0  0  0  0  0  0
  -16.1242   -9.8634    9.1580 C   0  0  0  0  0  0  0  0  0  0  0  0
  -22.2646   -5.1291    9.6935 C   0  0  0  0  0  0  0  0  0  0  0  0
  -19.8290   -4.3865   10.2615 C   0  0  0  0  0  0  0  0  0  0  0  0
  -15.6093   -8.4860    9.3252 N   0  0  0  0  0  0  0  0  0  0  0  0
  -21.1611   -4.1199    9.6349 N   0  0  0  0  0  0  0  0  0  0  0  0
  -21.4598   -2.8124    9.2086 C   0  0  0  0  0  0  0  0  0  0  0  0
  -22.4443   -2.5854    8.2932 N   0  0  0  0  0  0  0  0  0  0  0  0
  -20.6854   -1.7595    9.5976 N   0  0  0  0  0  0  0  0  0  0  0  0
  -20.2935   -8.5309    7.0802 C   0  0  0  0  0  0  0  0  0  0  0  0
  -20.5478   -7.1537    6.8354 C   0  0  0  0  0  0  0  0  0  0  0  0
  -21.1999   -6.7579    5.6346 C   0  0  0  0  0  0  0  0  0  0  0  0
  -21.5952   -7.7375    4.6836 C   0  0  0  0  0  0  0  0  0  0  0  0
  -21.3388   -9.1118    4.9304 C   0  0  0  0  0  0  0  0  0  0  0  0
  -20.6890   -9.5081    6.1289 C   0  0  0  0  0  0  0  0  0  0  0  0
  2  4  1  0  0  0  0
  3  5  1  0  0  0  0
  4  7  1  0  0  0  0
  6  1  1  0  0  0  0
  7 10  1  0  0  0  0
  8  6  1  0  0  0  0
  8 11  1  0  0  0  0
  9  6  1  0  0  0  0
 10 13  1  0  0  0  0
 11 14  1  0  0  0  0
 12  9  1  0  0  0  0
 14 12  1  0  0  0  0
 14 15  1  0  0  0  0
 15 16  1  0  0  0  0
 15 17  1  0  0  0  0
 18  2  1  0  0  0  0
 18 23  2  0  0  0  0
 19  1  1  0  0  0  0
 19 18  1  0  0  0  0
 20 19  2  0  0  0  0
 21  3  1  0  0  0  0
 21 20  1  0  0  0  0
 22 21  2  0  0  0  0
 22 23  1  0  0  0  0
M  END
>  <CHROM.1>
-174.48788822,-163.05207420,-78.41051316,76.00455876,-56.83314948,-31.75572289
-50.83450266,-124.57625609,-105.24458280,-36.49701184,126.15890613,-20.23374328
-6.75471721,7.81848013,1.96564888,-0.78359131,0.79538953

>  <Name>
1uui_lig

>  <RI>
0

>  <Rbt.Current_Directory>
/home/itssahil/PROJECTS/Mol_Feturizer/New_Systems/rnas/1uui

>  <Rbt.Executable>
rbdock ($Id: //depot/dev/client3/rdock/2013.1/src/exe/rbdock.cxx#4 $)

>  <Rbt.Library>
libRbt.so (2013.1, Build901 2013/11/27)

>  <Rbt.Parameter_File>
/export/apps/rDock/src/rDock_2013.1_src/data/scripts/dock_solv.prm

>  <Rbt.Receptor>
prm/blind_docking_60.prm

>  <SCORE>
-27.8485

>  <SCORE.INTER>
-20.6447

>  <SCORE.INTER.CONST>
1

>  <SCORE.INTER.POLAR>
-2.83417

>  <SCORE.INTER.ROT>
10

>  <SCORE.INTER.SOLV>
5.80893

>  <SCORE.INTER.VDW>
-16.5189

>  <SCORE.INTER.norm>
-0.897595

>  <SCORE.INTRA>
-8.03819

>  <SCORE.INTRA.DIHEDRAL>
-8.43325

>  <SCORE.INTRA.DIHEDRAL.0>
23.4151

>  <SCORE.INTRA.POLAR>
-0.864632

>  <SCORE.INTRA.POLAR.0>
0

>  <SCORE.INTRA.REPUL>
0

>  <SCORE.INTRA.REPUL.0>
0

>  <SCORE.INTRA.SOLV>
0.436293

>  <SCORE.INTRA.SOLV.lig_0>
-17.3568

>  <SCORE.INTRA.VDW>
-1.09997

>  <SCORE.INTRA.VDW.0>
1.0768

>  <SCORE.INTRA.norm>
-0.349487

>  <SCORE.RESTR>
0.834424

>  <SCORE.RESTR.CAVITY>
0.834424

>  <SCORE.RESTR.norm>
0.0362793

>  <SCORE.SYSTEM>
0

>  <SCORE.SYSTEM.CONST>
0

>  <SCORE.SYSTEM.DIHEDRAL>
0

>  <SCORE.SYSTEM.SOLV>
0

>  <SCORE.SYSTEM.norm>
0

>  <SCORE.heavy>
23

>  <SCORE.norm>
-1.2108

>  <RMSD>
13.687

$$$$
1uui_lig
 OpenBabel11021811413D
libRbt.so/2013.1/901 2013/11/27
 23 24  0  0  0  0  0  0  0  0999 V2000
  -19.4290   -6.8578    8.0148 C   0  0  0  0  0  0  0  0  0  0  0  0
  -17.8873   -8.6471    6.3199 O   0  0  0  0  0  0  0  0  0  0  0  0
  -16.2079   -7.9945   11.7289 O   0  0  0  0  0  0  0  0  0  0  0  0
  -18.0836  -10.0367    6.0293 C   0  0  0  0  0  0  0  0  0  0  0  0
  -16.5457   -9.1630   12.4802 C   0  0  0  0  0  0  0  0  0  0  0  0
  -19.1164   -6.2250    6.6915 N   0  0  0  0  0  0  0  0  0  0  0  0
  -18.4939  -10.1877    4.5636 C   0  0  0  0  0  0  0  0  0  0  0  0
  -18.5440   -4.8625    6.8668 C   0  0  0  0  0  0  0  0  0  0  0  0
  -20.3326   -6.1460    5.8399 C   0  0  0  0  0  0  0  0  0  0  0  0
  -18.5037  -11.6689    4.1725 C   0  0  0  0  0  0  0  0  0  0  0  0
  -19.5210   -3.9164    7.5854 C   0  0  0  0  0  0  0  0  0  0  0  0
  -21.4416   -5.3172    6.5103 C   0  0  0  0  0  0  0  0  0  0  0  0
  -18.8714  -11.8003    2.7449 N   0  0  0  0  0  0  0  0  0  0  0  0
  -20.9129   -4.4651    7.6206 N   0  0  0  0  0  0  0  0  0  0  0  0
  -21.8135   -3.9686    8.5812 C   0  0  0  0  0  0  0  0  0  0  0  0
  -22.9176   -4.6848    8.9376 N   0  0  0  0  0  0  0  0  0  0  0  0
  -21.6762   -2.7056    9.0768 N   0  0  0  0  0  0  0  0  0  0  0  0
  -17.4701   -8.4848    7.6785 C   0  0  0  0  0  0  0  0  0  0  0  0
  -18.1923   -7.6197    8.5452 C   0  0  0  0  0  0  0  0  0  0  0  0
  -17.7709   -7.4579    9.8943 C   0  0  0  0  0  0  0  0  0  0  0  0
  -16.6312   -8.1598   10.3726 C   0  0  0  0  0  0  0  0  0  0  0  0
  -15.9129   -9.0238    9.5050 C   0  0  0  0  0  0  0  0  0  0  0  0
  -16.3318   -9.1852    8.1581 C   0  0  0  0  0  0  0  0  0  0  0  0
  2  4  1  0  0  0  0
  3  5  1  0  0  0  0
  4  7  1  0  0  0  0
  6  1  1  0  0  0  0
  7 10  1  0  0  0  0
  8  6  1  0  0  0  0
  8 11  1  0  0  0  0
  9  6  1  0  0  0  0
 10 13  1  0  0  0  0
 11 14  1  0  0  0  0
 12  9  1  0  0  0  0
 14 12  1  0  0  0  0
 14 15  1  0  0  0  0
 15 16  1  0  0  0  0
 15 17  1  0  0  0  0
 18  2  1  0  0  0  0
 18 23  2  0  0  0  0
 19  1  1  0  0  0  0
 19 18  1  0  0  0  0
 20 19  2  0  0  0  0
 21  3  1  0  0  0  0
 21 20  1  0  0  0  0
 22 21  2  0  0  0  0
 22 23  1  0  0  0  0
M  END
>  <CHROM.1>
-178.56740132,171.48892810,-88.58886321,-178.69581653,52.03508402,-159.53433458
-22.55039345,129.08180850,-125.52379872,-46.78737364,105.93596035,-18.86181380
-7.32650379,7.69244199,2.30426881,-0.82011029,0.94993903

>  <Name>
1uui_lig

>  <RI>
0

>  <Rbt.Current_Directory>
/home/itssahil/PROJECTS/Mol_Feturizer/New_Systems/rnas/1uui

>  <Rbt.Executable>
rbdock ($Id: //depot/dev/client3/rdock/2013.1/src/exe/rbdock.cxx#4 $)

>  <Rbt.Library>
libRbt.so (2013.1, Build901 2013/11/27)

>  <Rbt.Parameter_File>
/export/apps/rDock/src/rDock_2013.1_src/data/scripts/dock_solv.prm

>  <Rbt.Receptor>
prm/blind_docking_100.prm

>  <SCORE>
-23.0926

>  <SCORE.INTER>
-15.094

>  <SCORE.INTER.CONST>
1

>  <SCORE.INTER.POLAR>
-1.39365

>  <SCORE.INTER.ROT>
10

>  <SCORE.INTER.SOLV>
5.50679

>  <SCORE.INTER.VDW>
-17.5194

>  <SCORE.INTER.norm>
-0.656259

>  <SCORE.INTRA>
-8.21434

>  <SCORE.INTRA.DIHEDRAL>
-9.16389

>  <SCORE.INTRA.DIHEDRAL.0>
23.4151

>  <SCORE.INTRA.POLAR>
-0.692797

>  <SCORE.INTRA.POLAR.0>
0

>  <SCORE.INTRA.REPUL>
0

>  <SCORE.INTRA.REPUL.0>
0

>  <SCORE.INTRA.SOLV>
0.224539

>  <SCORE.INTRA.SOLV.lig_0>
-17.3568

>  <SCORE.INTRA.VDW>
-1.38915

>  <SCORE.INTRA.VDW.0>
1.0768

>  <SCORE.INTRA.norm>
-0.357145

>  <SCORE.RESTR>
0.21566

>  <SCORE.RESTR.CAVITY>
0.21566

>  <SCORE.RESTR.norm>
0.0093765

>  <SCORE.SYSTEM>
0

>  <SCORE.SYSTEM.CONST>
0

>  <SCORE.SYSTEM.DIHEDRAL>
0

>  <SCORE.SYSTEM.SOLV>
0

>  <SCORE.SYSTEM.norm>
0

>  <SCORE.heavy>
23

>  <SCORE.norm>
-1.00403

>  <RMSD>
13.700

$$$$
1uui_lig
 OpenBabel11021811413D
libRbt.so/2013.1/901 2013/11/27
 23 24  0  0  0  0  0  0  0  0999 V2000
  -21.2800   -4.7764    8.8887 C   0  0  0  0  0  0  0  0  0  0  0  0
  -19.1465   -3.7696    7.1899 O   0  0  0  0  0  0  0  0  0  0  0  0
  -22.7552    0.0150    9.4610 O   0  0  0  0  0  0  0  0  0  0  0  0
  -19.5979   -4.1503    5.8840 C   0  0  0  0  0  0  0  0  0  0  0  0
  -23.5836    0.5589    8.4305 C   0  0  0  0  0  0  0  0  0  0  0  0
  -20.0037   -5.3437    9.4354 N   0  0  0  0  0  0  0  0  0  0  0  0
  -18.7177   -5.2873    5.3628 C   0  0  0  0  0  0  0  0  0  0  0  0
  -19.8689   -6.7879    9.1023 C   0  0  0  0  0  0  0  0  0  0  0  0
  -19.9321   -5.1662   10.9097 C   0  0  0  0  0  0  0  0  0  0  0  0
  -19.2968   -5.8414    4.0571 C   0  0  0  0  0  0  0  0  0  0  0  0
  -21.0124   -7.6251    9.7001 C   0  0  0  0  0  0  0  0  0  0  0  0
  -21.1032   -5.8637   11.6226 C   0  0  0  0  0  0  0  0  0  0  0  0
  -18.6778   -7.1524    3.7594 N   0  0  0  0  0  0  0  0  0  0  0  0
  -21.7748   -6.8721   10.7449 N   0  0  0  0  0  0  0  0  0  0  0  0
  -23.0753   -7.2976   11.0740 C   0  0  0  0  0  0  0  0  0  0  0  0
  -23.4063   -7.5946   12.3628 N   0  0  0  0  0  0  0  0  0  0  0  0
  -23.9927   -7.5512   10.0974 N   0  0  0  0  0  0  0  0  0  0  0  0
  -20.0508   -2.8215    7.7639 C   0  0  0  0  0  0  0  0  0  0  0  0
  -21.1104   -3.2666    8.6008 C   0  0  0  0  0  0  0  0  0  0  0  0
  -22.0100   -2.3204    9.1659 C   0  0  0  0  0  0  0  0  0  0  0  0
  -21.8486   -0.9348    8.8935 C   0  0  0  0  0  0  0  0  0  0  0  0
  -20.7888   -0.4933    8.0584 C   0  0  0  0  0  0  0  0  0  0  0  0
  -19.8910   -1.4368    7.4931 C   0  0  0  0  0  0  0  0  0  0  0  0
  2  4  1  0  0  0  0
  3  5  1  0  0  0  0
  4  7  1  0  0  0  0
  6  1  1  0  0  0  0
  7 10  1  0  0  0  0
  8  6  1  0  0  0  0
  8 11  1  0  0  0  0
  9  6  1  0  0  0  0
 10 13  1  0  0  0  0
 11 14  1  0  0  0  0
 12  9  1  0  0  0  0
 14 12  1  0  0  0  0
 14 15  1  0  0  0  0
 15 16  1  0  0  0  0
 15 17  1  0  0  0  0
 18  2  1  0  0  0  0
 18 23  2  0  0  0  0
 19  1  1  0  0  0  0
 19 18  1  0  0  0  0
 20 19  2  0  0  0  0
 21  3  1  0  0  0  0
 21 20  1  0  0  0  0
 22 21  2  0  0  0  0
 22 23  1  0  0  0  0
M  END
>  <CHROM.1>
-173.03511026,172.20719369,-151.79776382,-164.50239440,-66.55321631,124.60057342
-103.10736343,59.48197093,93.32479373,54.59542312,-109.78544590,-21.00622232
-4.50560718,8.59502836,2.01476551,-0.99123113,2.89075564

>  <Name>
1uui_lig

>  <RI>
0

>  <Rbt.Current_Directory>
/home/itssahil/PROJECTS/Mol_Feturizer/New_Systems/rnas/1uui

>  <Rbt.Executable>
rbdock ($Id: //depot/dev/client3/rdock/2013.1/src/exe/rbdock.cxx#4 $)

>  <Rbt.Library>
libRbt.so (2013.1, Build901 2013/11/27)

>  <Rbt.Parameter_File>
/export/apps/rDock/src/rDock_2013.1_src/data/scripts/dock_solv.prm

>  <Rbt.Receptor>
prm/blind_docking_40.prm

>  <SCORE>
-36.9083

>  <SCORE.INTER>
-28.2755

>  <SCORE.INTER.CONST>
1

>  <SCORE.INTER.POLAR>
-3.3796

>  <SCORE.INTER.ROT>
10

>  <SCORE.INTER.SOLV>
9.32742

>  <SCORE.INTER.VDW>
-20.9608

>  <SCORE.INTER.norm>
-1.22937

>  <SCORE.INTRA>
-8.69635

>  <SCORE.INTRA.DIHEDRAL>
-7.15354

>  <SCORE.INTRA.DIHEDRAL.0>
23.4151

>  <SCORE.INTRA.POLAR>
-0.574754

>  <SCORE.INTRA.POLAR.0>
0

>  <SCORE.INTRA.REPUL>
0

>  <SCORE.INTRA.REPUL.0>
0

>  <SCORE.INTRA.SOLV>
0.186944

>  <SCORE.INTRA.SOLV.lig_0>
-17.3568

>  <SCORE.INTRA.VDW>
-3.25889

>  <SCORE.INTRA.VDW.0>
1.0768

>  <SCORE.INTRA.norm>
-0.378102

>  <SCORE.RESTR>
0.0635062

>  <SCORE.RESTR.CAVITY>
0.0635062

>  <SCORE.RESTR.norm>
0.00276114

>  <SCORE.SYSTEM>
0

>  <SCORE.SYSTEM.CONST>
0

>  <SCORE.SYSTEM.DIHEDRAL>
0

>  <SCORE.SYSTEM.SOLV>
0

>  <SCORE.SYSTEM.norm>
0

>  <SCORE.heavy>
23

>  <SCORE.norm>
-1.60471

>  <RMSD>
13.704

$$$$
1uui_lig
 OpenBabel11021811413D
libRbt.so/2013.1/901 2013/11/27
 23 24  0  0  0  0  0  0  0  0999 V2000
  -19.7120   -6.4635    6.4392 C   0  0  0  0  0  0  0  0  0  0  0  0
  -17.7469   -6.1940    8.5646 O   0  0  0  0  0  0  0  0  0  0  0  0
  -22.9774   -4.1243    9.4932 O   0  0  0  0  0  0  0  0  0  0  0  0
  -17.7419   -7.6179    8.7273 C   0  0  0  0  0  0  0  0  0  0  0  0
  -23.3386   -3.2469    8.4238 C   0  0  0  0  0  0  0  0  0  0  0  0
  -20.8861   -6.3862    5.5092 N   0  0  0  0  0  0  0  0  0  0  0  0
  -16.3113   -8.1343    8.5664 C   0  0  0  0  0  0  0  0  0  0  0  0
  -21.8758   -7.4591    5.7994 C   0  0  0  0  0  0  0  0  0  0  0  0
  -20.4485   -6.4856    4.0918 C   0  0  0  0  0  0  0  0  0  0  0  0
  -16.2312   -9.6001    9.0046 C   0  0  0  0  0  0  0  0  0  0  0  0
  -21.2703   -8.8623    5.6254 C   0  0  0  0  0  0  0  0  0  0  0  0
  -19.7135   -7.8085    3.8165 C   0  0  0  0  0  0  0  0  0  0  0  0
  -16.9070  -10.4531    8.0015 N   0  0  0  0  0  0  0  0  0  0  0  0
  -19.9724   -8.8272    4.8812 N   0  0  0  0  0  0  0  0  0  0  0  0
  -19.0888   -9.9153    5.0070 C   0  0  0  0  0  0  0  0  0  0  0  0
  -19.0311  -10.6365    6.1626 N   0  0  0  0  0  0  0  0  0  0  0  0
  -18.1781  -10.1890    4.0296 N   0  0  0  0  0  0  0  0  0  0  0  0
  -19.0611   -5.6789    8.7968 C   0  0  0  0  0  0  0  0  0  0  0  0
  -20.0555   -5.7869    7.7866 C   0  0  0  0  0  0  0  0  0  0  0  0
  -21.3598   -5.2691    8.0203 C   0  0  0  0  0  0  0  0  0  0  0  0
  -21.6660   -4.6460    9.2606 C   0  0  0  0  0  0  0  0  0  0  0  0
  -20.6711   -4.5408   10.2679 C   0  0  0  0  0  0  0  0  0  0  0  0
  -19.3689   -5.0562   10.0353 C   0  0  0  0  0  0  0  0  0  0  0  0
  2  4  1  0  0  0  0
  3  5  1  0  0  0  0
  4  7  1  0  0  0  0
  6  1  1  0  0  0  0
  7 10  1  0  0  0  0
  8  6  1  0  0  0  0
  8 11  1  0  0  0  0
  9  6  1  0  0  0  0
 10 13  1  0  0  0  0
 11 14  1  0  0  0  0
 12  9  1  0  0  0  0
 14 12  1  0  0  0  0
 14 15  1  0  0  0  0
 15 16  1  0  0  0  0
 15 17  1  0  0  0  0
 18  2  1  0  0  0  0
 18 23  2  0  0  0  0
 19  1  1  0  0  0  0
 19 18  1  0  0  0  0
 20 19  2  0  0  0  0
 21  3  1  0  0  0  0
 21 20  1  0  0  0  0
 22 21  2  0  0  0  0
 22 23  1  0  0  0  0
M  END
>  <CHROM.1>
-176.26828305,168.89805010,-81.66546868,71.89573283,-46.49101909,-31.27118330
-2.81530229,139.08795233,-78.39710967,-176.60614377,-52.60890524,-19.69085487
-7.18193687,7.19157265,2.24283222,-0.63987978,0.95353038

>  <Name>
1uui_lig

>  <RI>
0

>  <Rbt.Current_Directory>
/home/itssahil/PROJECTS/Mol_Feturizer/New_Systems/rnas/1uui

>  <Rbt.Executable>
rbdock ($Id: //depot/dev/client3/rdock/2013.1/src/exe/rbdock.cxx#4 $)

>  <Rbt.Library>
libRbt.so (2013.1, Build901 2013/11/27)

>  <Rbt.Parameter_File>
/export/apps/rDock/src/rDock_2013.1_src/data/scripts/dock_solv.prm

>  <Rbt.Receptor>
prm/blind_docking_60.prm

>  <SCORE>
-30.6052

>  <SCORE.INTER>
-25.0833

>  <SCORE.INTER.CONST>
1

>  <SCORE.INTER.POLAR>
-3.75429

>  <SCORE.INTER.ROT>
10

>  <SCORE.INTER.SOLV>
6.02567

>  <SCORE.INTER.VDW>
-16.4831

>  <SCORE.INTER.norm>
-1.09058

>  <SCORE.INTRA>
-5.53732

>  <SCORE.INTRA.DIHEDRAL>
-8.75844

>  <SCORE.INTRA.DIHEDRAL.0>
23.4151

>  <SCORE.INTRA.POLAR>
-0.509927

>  <SCORE.INTRA.POLAR.0>
0

>  <SCORE.INTRA.REPUL>
0

>  <SCORE.INTRA.REPUL.0>
0

>  <SCORE.INTRA.SOLV>
1.43099

>  <SCORE.INTRA.SOLV.lig_0>
-17.3568

>  <SCORE.INTRA.VDW>
-0.13985

>  <SCORE.INTRA.VDW.0>
1.0768

>  <SCORE.INTRA.norm>
-0.240753

>  <SCORE.RESTR>
0.0154194

>  <SCORE.RESTR.CAVITY>
0.0154194

>  <SCORE.RESTR.norm>
0.000670407

>  <SCORE.SYSTEM>
0

>  <SCORE.SYSTEM.CONST>
0

>  <SCORE.SYSTEM.DIHEDRAL>
0

>  <SCORE.SYSTEM.SOLV>
0

>  <SCORE.SYSTEM.norm>
0

>  <SCORE.heavy>
23

>  <SCORE.norm>
-1.33066

>  <RMSD>
13.740

$$$$
1uui_lig
 OpenBabel11021811413D
libRbt.so/2013.1/901 2013/11/27
 23 24  0  0  0  0  0  0  0  0999 V2000
  -20.2736   -6.8281    8.2603 C   0  0  0  0  0  0  0  0  0  0  0  0
  -17.7106   -7.4480    7.0363 O   0  0  0  0  0  0  0  0  0  0  0  0
  -22.2909   -7.2030    3.6503 O   0  0  0  0  0  0  0  0  0  0  0  0
  -17.3016   -8.8113    7.2041 C   0  0  0  0  0  0  0  0  0  0  0  0
  -23.1362   -8.3258    3.9124 C   0  0  0  0  0  0  0  0  0  0  0  0
  -20.3727   -5.3559    8.5292 N   0  0  0  0  0  0  0  0  0  0  0  0
  -17.6943   -9.2821    8.6053 C   0  0  0  0  0  0  0  0  0  0  0  0
  -19.8507   -5.0181    9.8813 C   0  0  0  0  0  0  0  0  0  0  0  0
  -21.7787   -4.8875    8.4093 C   0  0  0  0  0  0  0  0  0  0  0  0
  -16.8392   -8.5675    9.6566 C   0  0  0  0  0  0  0  0  0  0  0  0
  -20.6432   -5.7217   10.9960 C   0  0  0  0  0  0  0  0  0  0  0  0
  -22.7046   -5.6126    9.4007 C   0  0  0  0  0  0  0  0  0  0  0  0
  -15.4499   -9.0731    9.5899 N   0  0  0  0  0  0  0  0  0  0  0  0
  -21.9390   -6.2812   10.4985 N   0  0  0  0  0  0  0  0  0  0  0  0
  -22.5668   -7.2999   11.2391 C   0  0  0  0  0  0  0  0  0  0  0  0
  -22.8885   -8.4892   10.6552 N   0  0  0  0  0  0  0  0  0  0  0  0
  -22.9880   -7.0735   12.5162 N   0  0  0  0  0  0  0  0  0  0  0  0
  -18.8606   -7.3822    6.1881 C   0  0  0  0  0  0  0  0  0  0  0  0
  -20.1356   -7.0830    6.7414 C   0  0  0  0  0  0  0  0  0  0  0  0
  -21.2772   -7.0231    5.8946 C   0  0  0  0  0  0  0  0  0  0  0  0
  -21.1416   -7.2618    4.5000 C   0  0  0  0  0  0  0  0  0  0  0  0
  -19.8669   -7.5590    3.9503 C   0  0  0  0  0  0  0  0  0  0  0  0
  -18.7271   -7.6202    4.7946 C   0  0  0  0  0  0  0  0  0  0  0  0
  2  4  1  0  0  0  0
  3  5  1  0  0  0  0
  4  7  1  0  0  0  0
  6  1  1  0  0  0  0
  7 10  1  0  0  0  0
  8  6  1  0  0  0  0
  8 11  1  0  0  0  0
  9  6  1  0  0  0  0
 10 13  1  0  0  0  0
 11 14  1  0  0  0  0
 12  9  1  0  0  0  0
 14 12  1  0  0  0  0
 14 15  1  0  0  0  0
 15 16  1  0  0  0  0
 15 17  1  0  0  0  0
 18  2  1  0  0  0  0
 18 23  2  0  0  0  0
 19  1  1  0  0  0  0
 19 18  1  0  0  0  0
 20 19  2  0  0  0  0
 21  3  1  0  0  0  0
 21 20  1  0  0  0  0
 22 21  2  0  0  0  0
 22 23  1  0  0  0  0
M  END
>  <CHROM.1>
-105.61559999,-69.17488698,-152.16371251,-70.80915644,166.53378641,-124.48758276
-16.66224733,-140.94849223,107.10112067,101.65993926,-70.62197803,-20.27074151
-7.20570740,7.99263299,1.86934194,-0.30889855,1.48559535

>  <Name>
1uui_lig

>  <RI>
0

>  <Rbt.Current_Directory>
/home/itssahil/PROJECTS/Mol_Feturizer/New_Systems/rnas/1uui

>  <Rbt.Executable>
rbdock ($Id: //depot/dev/client3/rdock/2013.1/src/exe/rbdock.cxx#4 $)

>  <Rbt.Library>
libRbt.so (2013.1, Build901 2013/11/27)

>  <Rbt.Parameter_File>
/export/apps/rDock/src/rDock_2013.1_src/data/scripts/dock_solv.prm

>  <Rbt.Receptor>
prm/blind_docking_60.prm

>  <SCORE>
-26.9045

>  <SCORE.INTER>
-23.3249

>  <SCORE.INTER.CONST>
1

>  <SCORE.INTER.POLAR>
-2.80814

>  <SCORE.INTER.ROT>
10

>  <SCORE.INTER.SOLV>
7.67598

>  <SCORE.INTER.VDW>
-19.0148

>  <SCORE.INTER.norm>
-1.01413

>  <SCORE.INTRA>
-3.57961

>  <SCORE.INTRA.DIHEDRAL>
-1.55047

>  <SCORE.INTRA.DIHEDRAL.0>
23.4151

>  <SCORE.INTRA.POLAR>
0

>  <SCORE.INTRA.POLAR.0>
0

>  <SCORE.INTRA.REPUL>
0

>  <SCORE.INTRA.REPUL.0>
0

>  <SCORE.INTRA.SOLV>
0.224732

>  <SCORE.INTRA.SOLV.lig_0>
-17.3568

>  <SCORE.INTRA.VDW>
-2.91674

>  <SCORE.INTRA.VDW.0>
1.0768

>  <SCORE.INTRA.norm>
-0.155635

>  <SCORE.RESTR>
0

>  <SCORE.RESTR.CAVITY>
0

>  <SCORE.RESTR.norm>
0

>  <SCORE.SYSTEM>
0

>  <SCORE.SYSTEM.CONST>
0

>  <SCORE.SYSTEM.DIHEDRAL>
0

>  <SCORE.SYSTEM.SOLV>
0

>  <SCORE.SYSTEM.norm>
0

>  <SCORE.heavy>
23

>  <SCORE.norm>
-1.16976

>  <RMSD>
13.755

$$$$
1uui_lig
 OpenBabel11021811413D
libRbt.so/2013.1/901 2013/11/27
 23 24  0  0  0  0  0  0  0  0999 V2000
  -19.9040   -7.1770    8.7517 C   0  0  0  0  0  0  0  0  0  0  0  0
  -17.1436   -7.9990    9.1466 O   0  0  0  0  0  0  0  0  0  0  0  0
  -19.6098   -9.2513    4.1612 O   0  0  0  0  0  0  0  0  0  0  0  0
  -16.4277   -9.1401    9.6357 C   0  0  0  0  0  0  0  0  0  0  0  0
  -19.6511  -10.6707    3.9951 C   0  0  0  0  0  0  0  0  0  0  0  0
  -19.2192   -5.8864    9.0905 N   0  0  0  0  0  0  0  0  0  0  0  0
  -15.6919   -8.7556   10.9203 C   0  0  0  0  0  0  0  0  0  0  0  0
  -19.5299   -5.4599   10.4820 C   0  0  0  0  0  0  0  0  0  0  0  0
  -19.6137   -4.8110    8.1426 C   0  0  0  0  0  0  0  0  0  0  0  0
  -16.7009   -8.4879   12.0416 C   0  0  0  0  0  0  0  0  0  0  0  0
  -21.0358   -5.2247   10.6888 C   0  0  0  0  0  0  0  0  0  0  0  0
  -21.1314   -4.5618    8.1673 C   0  0  0  0  0  0  0  0  0  0  0  0
  -17.3517   -7.1776   11.8180 N   0  0  0  0  0  0  0  0  0  0  0  0
  -21.7750   -5.1341    9.3907 N   0  0  0  0  0  0  0  0  0  0  0  0
  -23.1648   -5.3547    9.3849 C   0  0  0  0  0  0  0  0  0  0  0  0
  -23.6785   -6.5745    9.7124 N   0  0  0  0  0  0  0  0  0  0  0  0
  -24.0196   -4.3977    8.9234 N   0  0  0  0  0  0  0  0  0  0  0  0
  -17.7632   -8.3087    7.8951 C   0  0  0  0  0  0  0  0  0  0  0  0
  -19.1119   -7.9276    7.6561 C   0  0  0  0  0  0  0  0  0  0  0  0
  -19.7253   -8.2418    6.4116 C   0  0  0  0  0  0  0  0  0  0  0  0
  -18.9907   -8.9346    5.4113 C   0  0  0  0  0  0  0  0  0  0  0  0
  -17.6438   -9.3127    5.6524 C   0  0  0  0  0  0  0  0  0  0  0  0
  -17.0309   -9.0007    6.8944 C   0  0  0  0  0  0  0  0  0  0  0  0
  2  4  1  0  0  0  0
  3  5  1  0  0  0  0
  4  7  1  0  0  0  0
  6  1  1  0  0  0  0
  7 10  1  0  0  0  0
  8  6  1  0  0  0  0
  8 11  1  0  0  0  0
  9  6  1  0  0  0  0
 10 13  1  0  0  0  0
 11 14  1  0  0  0  0
 12  9  1  0  0  0  0
 14 12  1  0  0  0  0
 14 15  1  0  0  0  0
 15 16  1  0  0  0  0
 15 17  1  0  0  0  0
 18  2  1  0  0  0  0
 18 23  2  0  0  0  0
 19  1  1  0  0  0  0
 19 18  1  0  0  0  0
 20 19  2  0  0  0  0
 21  3  1  0  0  0  0
 21 20  1  0  0  0  0
 22 21  2  0  0  0  0
 22 23  1  0  0  0  0
M  END
>  <CHROM.1>
175.94108775,68.18928866,-153.59743050,-74.96132955,-78.82238336,-64.61318426
-41.23460810,-43.69147963,134.81050658,59.68959933,-118.05263530,-19.42686536
-7.26375863,8.50209676,2.49473704,-0.50592233,1.10096495

>  <Name>
1uui_lig

>  <RI>
0

>  <Rbt.Current_Directory>
/home/itssahil/PROJECTS/Mol_Feturizer/New_Systems/rnas/1uui

>  <Rbt.Executable>
rbdock ($Id: //depot/dev/client3/rdock/2013.1/src/exe/rbdock.cxx#4 $)

>  <Rbt.Library>
libRbt.so (2013.1, Build901 2013/11/27)

>  <Rbt.Parameter_File>
/export/apps/rDock/src/rDock_2013.1_src/data/scripts/dock_solv.prm

>  <Rbt.Receptor>
prm/blind_docking_80.prm

>  <SCORE>
-26.4385

>  <SCORE.INTER>
-16.9022

>  <SCORE.INTER.CONST>
1

>  <SCORE.INTER.POLAR>
-1.50025

>  <SCORE.INTER.ROT>
10

>  <SCORE.INTER.SOLV>
7.92568

>  <SCORE.INTER.VDW>
-19.1759

>  <SCORE.INTER.norm>
-0.734879

>  <SCORE.INTRA>
-9.70998

>  <SCORE.INTRA.DIHEDRAL>
-9.63069

>  <SCORE.INTRA.DIHEDRAL.0>
23.4151

>  <SCORE.INTRA.POLAR>
-1.1147

>  <SCORE.INTRA.POLAR.0>
0

>  <SCORE.INTRA.REPUL>
0

>  <SCORE.INTRA.REPUL.0>
0

>  <SCORE.INTRA.SOLV>
1.11373

>  <SCORE.INTRA.SOLV.lig_0>
-17.3568

>  <SCORE.INTRA.VDW>
-1.66153

>  <SCORE.INTRA.VDW.0>
1.0768

>  <SCORE.INTRA.norm>
-0.422173

>  <SCORE.RESTR>
0.173709

>  <SCORE.RESTR.CAVITY>
0.173709

>  <SCORE.RESTR.norm>
0.00755258

>  <SCORE.SYSTEM>
0

>  <SCORE.SYSTEM.CONST>
0

>  <SCORE.SYSTEM.DIHEDRAL>
0

>  <SCORE.SYSTEM.SOLV>
0

>  <SCORE.SYSTEM.norm>
0

>  <SCORE.heavy>
23

>  <SCORE.norm>
-1.1495

>  <RMSD>
13.761

$$$$
1uui_lig
 OpenBabel11021811413D
libRbt.so/2013.1/901 2013/11/27
 23 24  0  0  0  0  0  0  0  0999 V2000
  -21.3173   -7.6788    6.2891 C   0  0  0  0  0  0  0  0  0  0  0  0
  -18.9086   -8.1151    7.8573 O   0  0  0  0  0  0  0  0  0  0  0  0
  -22.4292   -3.9374    9.4872 O   0  0  0  0  0  0  0  0  0  0  0  0
  -17.5802   -7.5997    7.7033 C   0  0  0  0  0  0  0  0  0  0  0  0
  -22.6155   -3.0229    8.4042 C   0  0  0  0  0  0  0  0  0  0  0  0
  -21.3037   -6.8283    5.0538 N   0  0  0  0  0  0  0  0  0  0  0  0
  -16.5828   -8.6111    8.2704 C   0  0  0  0  0  0  0  0  0  0  0  0
  -21.7650   -7.5959    3.8652 C   0  0  0  0  0  0  0  0  0  0  0  0
  -19.9431   -6.2868    4.7967 C   0  0  0  0  0  0  0  0  0  0  0  0
  -16.5570   -8.5201    9.7995 C   0  0  0  0  0  0  0  0  0  0  0  0
  -20.8600   -8.8053    3.5749 C   0  0  0  0  0  0  0  0  0  0  0  0
  -18.9112   -7.4117    4.6077 C   0  0  0  0  0  0  0  0  0  0  0  0
  -15.2217   -8.9216   10.2957 N   0  0  0  0  0  0  0  0  0  0  0  0
  -19.5612   -8.7269    4.3143 N   0  0  0  0  0  0  0  0  0  0  0  0
  -18.8212   -9.9075    4.5122 C   0  0  0  0  0  0  0  0  0  0  0  0
  -18.1554  -10.1250    5.6819 N   0  0  0  0  0  0  0  0  0  0  0  0
  -18.6426  -10.7961    3.4934 N   0  0  0  0  0  0  0  0  0  0  0  0
  -19.7953   -7.0699    8.2666 C   0  0  0  0  0  0  0  0  0  0  0  0
  -20.9854   -6.8186    7.5305 C   0  0  0  0  0  0  0  0  0  0  0  0
  -21.8620   -5.7752    7.9387 C   0  0  0  0  0  0  0  0  0  0  0  0
  -21.5475   -4.9874    9.0793 C   0  0  0  0  0  0  0  0  0  0  0  0
  -20.3591   -5.2416    9.8130 C   0  0  0  0  0  0  0  0  0  0  0  0
  -19.4830   -6.2820    9.4059 C   0  0  0  0  0  0  0  0  0  0  0  0
  2  4  1  0  0  0  0
  3  5  1  0  0  0  0
  4  7  1  0  0  0  0
  6  1  1  0  0  0  0
  7 10  1  0  0  0  0
  8  6  1  0  0  0  0
  8 11  1  0  0  0  0
  9  6  1  0  0  0  0
 10 13  1  0  0  0  0
 11 14  1  0  0  0  0
 12  9  1  0  0  0  0
 14 12  1  0  0  0  0
 14 15  1  0  0  0  0
 15 16  1  0  0  0  0
 15 17  1  0  0  0  0
 18  2  1  0  0  0  0
 18 23  2  0  0  0  0
 19  1  1  0  0  0  0
 19 18  1  0  0  0  0
 20 19  2  0  0  0  0
 21  3  1  0  0  0  0
 21 20  1  0  0  0  0
 22 21  2  0  0  0  0
 22 23  1  0  0  0  0
M  END
>  <CHROM.1>
138.92453585,-78.17588712,-173.76466451,-151.42317346,-77.56048405,-141.94352795
-147.43968854,32.07265559,126.62254109,-115.30054215,-56.66661507,-19.64486879
-7.39951397,6.94477753,2.16210063,-0.62800370,1.04260710

>  <Name>
1uui_lig

>  <RI>
0

>  <Rbt.Current_Directory>
/home/itssahil/PROJECTS/Mol_Feturizer/New_Systems/rnas/1uui

>  <Rbt.Executable>
rbdock ($Id: //depot/dev/client3/rdock/2013.1/src/exe/rbdock.cxx#4 $)

>  <Rbt.Library>
libRbt.so (2013.1, Build901 2013/11/27)

>  <Rbt.Parameter_File>
/export/apps/rDock/src/rDock_2013.1_src/data/scripts/dock_solv.prm

>  <Rbt.Receptor>
prm/blind_docking_60.prm

>  <SCORE>
-27.6347

>  <SCORE.INTER>
-22.0048

>  <SCORE.INTER.CONST>
1

>  <SCORE.INTER.POLAR>
-2.81194

>  <SCORE.INTER.ROT>
10

>  <SCORE.INTER.SOLV>
6.04553

>  <SCORE.INTER.VDW>
-17.5786

>  <SCORE.INTER.norm>
-0.95673

>  <SCORE.INTRA>
-6.13467

>  <SCORE.INTRA.DIHEDRAL>
-2.5142

>  <SCORE.INTRA.DIHEDRAL.0>
23.4151

>  <SCORE.INTRA.POLAR>
-0.926771

>  <SCORE.INTRA.POLAR.0>
0

>  <SCORE.INTRA.REPUL>
0

>  <SCORE.INTRA.REPUL.0>
0

>  <SCORE.INTRA.SOLV>
1.22498

>  <SCORE.INTRA.SOLV.lig_0>
-17.3568

>  <SCORE.INTRA.VDW>
-2.33904

>  <SCORE.INTRA.VDW.0>
1.0768

>  <SCORE.INTRA.norm>
-0.266725

>  <SCORE.RESTR>
0.504801

>  <SCORE.RESTR.CAVITY>
0.504801

>  <SCORE.RESTR.norm>
0.0219479

>  <SCORE.SYSTEM>
0

>  <SCORE.SYSTEM.CONST>
0

>  <SCORE.SYSTEM.DIHEDRAL>
0

>  <SCORE.SYSTEM.SOLV>
0

>  <SCORE.SYSTEM.norm>
0

>  <SCORE.heavy>
23

>  <SCORE.norm>
-1.20151

>  <RMSD>
13.772

$$$$
1uui_lig
 OpenBabel11021811413D
libRbt.so/2013.1/901 2013/11/27
 23 24  0  0  0  0  0  0  0  0999 V2000
  -20.5287   -5.9808    7.5281 C   0  0  0  0  0  0  0  0  0  0  0  0
  -18.0202   -7.2384    6.7685 O   0  0  0  0  0  0  0  0  0  0  0  0
  -19.2479   -6.8834   12.3247 O   0  0  0  0  0  0  0  0  0  0  0  0
  -17.4891   -8.5343    6.4641 C   0  0  0  0  0  0  0  0  0  0  0  0
  -19.9151   -8.0757   12.7456 C   0  0  0  0  0  0  0  0  0  0  0  0
  -19.8093   -5.0473    6.6004 N   0  0  0  0  0  0  0  0  0  0  0  0
  -18.6464   -9.5050    6.2241 C   0  0  0  0  0  0  0  0  0  0  0  0
  -19.3511   -3.8244    7.3141 C   0  0  0  0  0  0  0  0  0  0  0  0
  -20.6786   -4.6586    5.4586 C   0  0  0  0  0  0  0  0  0  0  0  0
  -19.0367   -9.4985    4.7426 C   0  0  0  0  0  0  0  0  0  0  0  0
  -20.5270   -3.0313    7.9091 C   0  0  0  0  0  0  0  0  0  0  0  0
  -21.9611   -3.9560    5.9356 C   0  0  0  0  0  0  0  0  0  0  0  0
  -17.9178  -10.0335    3.9348 N   0  0  0  0  0  0  0  0  0  0  0  0
  -21.8428   -3.4665    7.3444 N   0  0  0  0  0  0  0  0  0  0  0  0
  -23.0182   -3.1750    8.0613 C   0  0  0  0  0  0  0  0  0  0  0  0
  -23.4602   -1.8909    8.1830 N   0  0  0  0  0  0  0  0  0  0  0  0
  -23.6663   -4.1493    8.7614 N   0  0  0  0  0  0  0  0  0  0  0  0
  -18.3321   -7.1517    8.1619 C   0  0  0  0  0  0  0  0  0  0  0  0
  -19.5472   -6.5445    8.5817 C   0  0  0  0  0  0  0  0  0  0  0  0
  -19.8510   -6.4564    9.9687 C   0  0  0  0  0  0  0  0  0  0  0  0
  -18.9416   -6.9744   10.9304 C   0  0  0  0  0  0  0  0  0  0  0  0
  -17.7298   -7.5813   10.5080 C   0  0  0  0  0  0  0  0  0  0  0  0
  -17.4249   -7.6688    9.1241 C   0  0  0  0  0  0  0  0  0  0  0  0
  2  4  1  0  0  0  0
  3  5  1  0  0  0  0
  4  7  1  0  0  0  0
  6  1  1  0  0  0  0
  7 10  1  0  0  0  0
  8  6  1  0  0  0  0
  8 11  1  0  0  0  0
  9  6  1  0  0  0  0
 10 13  1  0  0  0  0
 11 14  1  0  0  0  0
 12  9  1  0  0  0  0
 14 12  1  0  0  0  0
 14 15  1  0  0  0  0
 15 16  1  0  0  0  0
 15 17  1  0  0  0  0
 18  2  1  0  0  0  0
 18 23  2  0  0  0  0
 19  1  1  0  0  0  0
 19 18  1  0  0  0  0
 20 19  2  0  0  0  0
 21  3  1  0  0  0  0
 21 20  1  0  0  0  0
 22 21  2  0  0  0  0
 22 23  1  0  0  0  0
M  END
>  <CHROM.1>
84.46364901,89.71387802,-66.62320240,65.23551597,39.80933718,69.06982032
-55.84117039,121.45366425,-136.92245886,-52.36013068,92.66183541,-19.89846874
-6.14323585,7.93789488,2.96634413,-0.91291862,1.53889340

>  <Name>
1uui_lig

>  <RI>
0

>  <Rbt.Current_Directory>
/home/itssahil/PROJECTS/Mol_Feturizer/New_Systems/rnas/1uui

>  <Rbt.Executable>
rbdock ($Id: //depot/dev/client3/rdock/2013.1/src/exe/rbdock.cxx#4 $)

>  <Rbt.Library>
libRbt.so (2013.1, Build901 2013/11/27)

>  <Rbt.Parameter_File>
/export/apps/rDock/src/rDock_2013.1_src/data/scripts/dock_solv.prm

>  <Rbt.Receptor>
prm/blind_docking_40.prm

>  <SCORE>
-25.823

>  <SCORE.INTER>
-19.0023

>  <SCORE.INTER.CONST>
1

>  <SCORE.INTER.POLAR>
-2.90929

>  <SCORE.INTER.ROT>
10

>  <SCORE.INTER.SOLV>
6.51532

>  <SCORE.INTER.VDW>
-15.409

>  <SCORE.INTER.norm>
-0.826189

>  <SCORE.INTRA>
-6.82064

>  <SCORE.INTRA.DIHEDRAL>
-5.53453

>  <SCORE.INTRA.DIHEDRAL.0>
23.4151

>  <SCORE.INTRA.POLAR>
-0.651398

>  <SCORE.INTRA.POLAR.0>
0

>  <SCORE.INTRA.REPUL>
0

>  <SCORE.INTRA.REPUL.0>
0

>  <SCORE.INTRA.SOLV>
0.40881

>  <SCORE.INTRA.SOLV.lig_0>
-17.3568

>  <SCORE.INTRA.VDW>
-2.04303

>  <SCORE.INTRA.VDW.0>
1.0768

>  <SCORE.INTRA.norm>
-0.29655

>  <SCORE.RESTR>
0

>  <SCORE.RESTR.CAVITY>
0

>  <SCORE.RESTR.norm>
0

>  <SCORE.SYSTEM>
0

>  <SCORE.SYSTEM.CONST>
0

>  <SCORE.SYSTEM.DIHEDRAL>
0

>  <SCORE.SYSTEM.SOLV>
0

>  <SCORE.SYSTEM.norm>
0

>  <SCORE.heavy>
23

>  <SCORE.norm>
-1.12274

>  <RMSD>
13.775

$$$$
1uui_lig
 OpenBabel11021811413D
libRbt.so/2013.1/901 2013/11/27
 23 24  0  0  0  0  0  0  0  0999 V2000
  -20.0298   -6.9589    8.0986 C   0  0  0  0  0  0  0  0  0  0  0  0
  -19.3871   -9.6964    7.3607 O   0  0  0  0  0  0  0  0  0  0  0  0
  -17.0715   -5.4932    4.2826 O   0  0  0  0  0  0  0  0  0  0  0  0
  -19.8361  -10.7449    6.4929 C   0  0  0  0  0  0  0  0  0  0  0  0
  -18.1014   -4.8012    3.5724 C   0  0  0  0  0  0  0  0  0  0  0  0
  -19.5665   -5.7154    8.7974 N   0  0  0  0  0  0  0  0  0  0  0  0
  -21.1827  -10.3487    5.8856 C   0  0  0  0  0  0  0  0  0  0  0  0
  -19.1453   -6.0069   10.1947 C   0  0  0  0  0  0  0  0  0  0  0  0
  -20.6353   -4.6819    8.8071 C   0  0  0  0  0  0  0  0  0  0  0  0
  -20.9694   -9.3425    4.7502 C   0  0  0  0  0  0  0  0  0  0  0  0
  -20.2994   -6.5783   11.0358 C   0  0  0  0  0  0  0  0  0  0  0  0
  -21.9018   -5.1824    9.5225 C   0  0  0  0  0  0  0  0  0  0  0  0
  -22.2822   -8.8963    4.2326 N   0  0  0  0  0  0  0  0  0  0  0  0
  -21.6284   -6.3796   10.3770 N   0  0  0  0  0  0  0  0  0  0  0  0
  -22.7078   -7.1933   10.7684 C   0  0  0  0  0  0  0  0  0  0  0  0
  -23.7753   -7.3807    9.9412 N   0  0  0  0  0  0  0  0  0  0  0  0
  -22.7735   -7.7022   12.0318 N   0  0  0  0  0  0  0  0  0  0  0  0
  -18.8042   -8.6401    6.5923 C   0  0  0  0  0  0  0  0  0  0  0  0
  -19.0898   -7.2853    6.9150 C   0  0  0  0  0  0  0  0  0  0  0  0
  -18.5113   -6.2382    6.1450 C   0  0  0  0  0  0  0  0  0  0  0  0
  -17.6507   -6.5473    5.0568 C   0  0  0  0  0  0  0  0  0  0  0  0
  -17.3665   -7.9011    4.7379 C   0  0  0  0  0  0  0  0  0  0  0  0
  -17.9441   -8.9470    5.5049 C   0  0  0  0  0  0  0  0  0  0  0  0
  2  4  1  0  0  0  0
  3  5  1  0  0  0  0
  4  7  1  0  0  0  0
  6  1  1  0  0  0  0
  7 10  1  0  0  0  0
  8  6  1  0  0  0  0
  8 11  1  0  0  0  0
  9  6  1  0  0  0  0
 10 13  1  0  0  0  0
 11 14  1  0  0  0  0
 12  9  1  0  0  0  0
 14 12  1  0  0  0  0
 14 15  1  0  0  0  0
 15 16  1  0  0  0  0
 15 17  1  0  0  0  0
 18  2  1  0  0  0  0
 18 23  2  0  0  0  0
 19  1  1  0  0  0  0
 19 18  1  0  0  0  0
 20 19  2  0  0  0  0
 21  3  1  0  0  0  0
 21 20  1  0  0  0  0
 22 21  2  0  0  0  0
 22 23  1  0  0  0  0
M  END
>  <CHROM.1>
-79.76265692,77.84339560,-115.78318895,-176.14436963,178.23086797,-157.89873699
85.07280904,28.26130686,137.55253861,144.44827279,-66.33502232,-20.10206784
-7.33412290,7.45512281,-2.37814819,-0.79669771,-2.34363235

>  <Name>
1uui_lig

>  <RI>
0

>  <Rbt.Current_Directory>
/home/itssahil/PROJECTS/Mol_Feturizer/New_Systems/rnas/1uui

>  <Rbt.Executable>
rbdock ($Id: //depot/dev/client3/rdock/2013.1/src/exe/rbdock.cxx#4 $)

>  <Rbt.Library>
libRbt.so (2013.1, Build901 2013/11/27)

>  <Rbt.Parameter_File>
/export/apps/rDock/src/rDock_2013.1_src/data/scripts/dock_solv.prm

>  <Rbt.Receptor>
prm/blind_docking_60.prm

>  <SCORE>
-21.5624

>  <SCORE.INTER>
-19.6245

>  <SCORE.INTER.CONST>
1

>  <SCORE.INTER.POLAR>
-2.64798

>  <SCORE.INTER.ROT>
10

>  <SCORE.INTER.SOLV>
6.31566

>  <SCORE.INTER.VDW>
-16.6283

>  <SCORE.INTER.norm>
-0.853241

>  <SCORE.INTRA>
-2.04145

>  <SCORE.INTRA.DIHEDRAL>
-6.26044

>  <SCORE.INTRA.DIHEDRAL.0>
23.4151

>  <SCORE.INTRA.POLAR>
0

>  <SCORE.INTRA.POLAR.0>
0

>  <SCORE.INTRA.REPUL>
0

>  <SCORE.INTRA.REPUL.0>
0

>  <SCORE.INTRA.SOLV>
-0.0148354

>  <SCORE.INTRA.SOLV.lig_0>
-17.3568

>  <SCORE.INTRA.VDW>
1.09619

>  <SCORE.INTRA.VDW.0>
1.0768

>  <SCORE.INTRA.norm>
-0.0887588

>  <SCORE.RESTR>
0.103634

>  <SCORE.RESTR.CAVITY>
0.103634

>  <SCORE.RESTR.norm>
0.00450581

>  <SCORE.SYSTEM>
0

>  <SCORE.SYSTEM.CONST>
0

>  <SCORE.SYSTEM.DIHEDRAL>
0

>  <SCORE.SYSTEM.SOLV>
0

>  <SCORE.SYSTEM.norm>
0

>  <SCORE.heavy>
23

>  <SCORE.norm>
-0.937494

>  <RMSD>
13.780

$$$$
1uui_lig
 OpenBabel11021811413D
libRbt.so/2013.1/901 2013/11/27
 23 24  0  0  0  0  0  0  0  0999 V2000
  -20.4196   -6.3094    8.5127 C   0  0  0  0  0  0  0  0  0  0  0  0
  -19.0954   -8.8883    8.2960 O   0  0  0  0  0  0  0  0  0  0  0  0
  -23.1937   -7.6719    4.5240 O   0  0  0  0  0  0  0  0  0  0  0  0
  -18.0283   -7.9372    8.1921 C   0  0  0  0  0  0  0  0  0  0  0  0
  -22.6239   -7.0052    3.3948 C   0  0  0  0  0  0  0  0  0  0  0  0
  -21.4226   -6.3550    9.6269 N   0  0  0  0  0  0  0  0  0  0  0  0
  -16.8544   -8.4072    9.0523 C   0  0  0  0  0  0  0  0  0  0  0  0
  -22.6632   -5.6162    9.2666 C   0  0  0  0  0  0  0  0  0  0  0  0
  -20.8532   -5.7875   10.8777 C   0  0  0  0  0  0  0  0  0  0  0  0
  -16.0760   -9.5057    8.3211 C   0  0  0  0  0  0  0  0  0  0  0  0
  -22.3863   -4.1293    8.9865 C   0  0  0  0  0  0  0  0  0  0  0  0
  -20.4204   -4.3234   10.6906 C   0  0  0  0  0  0  0  0  0  0  0  0
  -16.9476  -10.6870    8.1333 N   0  0  0  0  0  0  0  0  0  0  0  0
  -21.0364   -3.7063    9.4749 N   0  0  0  0  0  0  0  0  0  0  0  0
  -20.4535   -2.5445    8.9356 C   0  0  0  0  0  0  0  0  0  0  0  0
  -19.2480   -2.5994    8.3010 N   0  0  0  0  0  0  0  0  0  0  0  0
  -21.0133   -1.3200    9.1519 N   0  0  0  0  0  0  0  0  0  0  0  0
  -20.1214   -8.5793    7.3483 C   0  0  0  0  0  0  0  0  0  0  0  0
  -20.7978   -7.3306    7.4149 C   0  0  0  0  0  0  0  0  0  0  0  0
  -21.8205   -7.0296    6.4730 C   0  0  0  0  0  0  0  0  0  0  0  0
  -22.1638   -7.9755    5.4691 C   0  0  0  0  0  0  0  0  0  0  0  0
  -21.4856   -9.2210    5.4044 C   0  0  0  0  0  0  0  0  0  0  0  0
  -20.4655   -9.5230    6.3446 C   0  0  0  0  0  0  0  0  0  0  0  0
  2  4  1  0  0  0  0
  3  5  1  0  0  0  0
  4  7  1  0  0  0  0
  6  1  1  0  0  0  0
  7 10  1  0  0  0  0
  8  6  1  0  0  0  0
  8 11  1  0  0  0  0
  9  6  1  0  0  0  0
 10 13  1  0  0  0  0
 11 14  1  0  0  0  0
 12  9  1  0  0  0  0
 14 12  1  0  0  0  0
 14 15  1  0  0  0  0
 15 16  1  0  0  0  0
 15 17  1  0  0  0  0
 18  2  1  0  0  0  0
 18 23  2  0  0  0  0
 19  1  1  0  0  0  0
 19 18  1  0  0  0  0
 20 19  2  0  0  0  0
 21  3  1  0  0  0  0
 21 20  1  0  0  0  0
 22 21  2  0  0  0  0
 22 23  1  0  0  0  0
M  END
>  <CHROM.1>
-171.26544264,78.66087652,-78.63032999,-63.72458379,-91.37320645,-120.99898092
57.53742679,53.82024412,-60.83610344,-100.99443783,88.91949663,-20.38204594
-6.60176489,7.94109243,-1.94652072,0.64377330,-2.54983711

>  <Name>
1uui_lig

>  <RI>
0

>  <Rbt.Current_Directory>
/home/itssahil/PROJECTS/Mol_Feturizer/New_Systems/rnas/1uui

>  <Rbt.Executable>
rbdock ($Id: //depot/dev/client3/rdock/2013.1/src/exe/rbdock.cxx#4 $)

>  <Rbt.Library>
libRbt.so (2013.1, Build901 2013/11/27)

>  <Rbt.Parameter_File>
/export/apps/rDock/src/rDock_2013.1_src/data/scripts/dock_solv.prm

>  <Rbt.Receptor>
prm/blind_docking_60.prm

>  <SCORE>
-21.2909

>  <SCORE.INTER>
-14.9834

>  <SCORE.INTER.CONST>
1

>  <SCORE.INTER.POLAR>
-1.94891

>  <SCORE.INTER.ROT>
10

>  <SCORE.INTER.SOLV>
7.73598

>  <SCORE.INTER.VDW>
-16.3379

>  <SCORE.INTER.norm>
-0.65145

>  <SCORE.INTRA>
-6.77376

>  <SCORE.INTRA.DIHEDRAL>
-6.23358

>  <SCORE.INTRA.DIHEDRAL.0>
23.4151

>  <SCORE.INTRA.POLAR>
-0.876866

>  <SCORE.INTRA.POLAR.0>
0

>  <SCORE.INTRA.REPUL>
0

>  <SCORE.INTRA.REPUL.0>
0

>  <SCORE.INTRA.SOLV>
0.586213

>  <SCORE.INTRA.SOLV.lig_0>
-17.3568

>  <SCORE.INTRA.VDW>
-0.968732

>  <SCORE.INTRA.VDW.0>
1.0768

>  <SCORE.INTRA.norm>
-0.294511

>  <SCORE.RESTR>
0.466202

>  <SCORE.RESTR.CAVITY>
0.466202

>  <SCORE.RESTR.norm>
0.0202697

>  <SCORE.SYSTEM>
0

>  <SCORE.SYSTEM.CONST>
0

>  <SCORE.SYSTEM.DIHEDRAL>
0

>  <SCORE.SYSTEM.SOLV>
0

>  <SCORE.SYSTEM.norm>
0

>  <SCORE.heavy>
23

>  <SCORE.norm>
-0.925692

>  <RMSD>
13.789

$$$$
1uui_lig
 OpenBabel11021811413D
libRbt.so/2013.1/901 2013/11/27
 23 24  0  0  0  0  0  0  0  0999 V2000
  -20.2630   -7.1394    6.2496 C   0  0  0  0  0  0  0  0  0  0  0  0
  -18.4346   -7.9146    8.3727 O   0  0  0  0  0  0  0  0  0  0  0  0
  -22.2639   -3.8460    9.5071 O   0  0  0  0  0  0  0  0  0  0  0  0
  -17.2530   -7.7036    9.1558 C   0  0  0  0  0  0  0  0  0  0  0  0
  -23.5600   -4.2761    9.0841 C   0  0  0  0  0  0  0  0  0  0  0  0
  -19.3704   -6.3474    5.3411 N   0  0  0  0  0  0  0  0  0  0  0  0
  -16.1700   -8.6826    8.7002 C   0  0  0  0  0  0  0  0  0  0  0  0
  -19.7781   -6.4988    3.9179 C   0  0  0  0  0  0  0  0  0  0  0  0
  -17.9511   -6.7621    5.4970 C   0  0  0  0  0  0  0  0  0  0  0  0
  -16.6742  -10.1227    8.8381 C   0  0  0  0  0  0  0  0  0  0  0  0
  -19.6951   -7.9612    3.4483 C   0  0  0  0  0  0  0  0  0  0  0  0
  -17.7565   -8.2524    5.1697 C   0  0  0  0  0  0  0  0  0  0  0  0
  -17.4872  -10.4768    7.6531 N   0  0  0  0  0  0  0  0  0  0  0  0
  -18.9066   -8.8122    4.3937 N   0  0  0  0  0  0  0  0  0  0  0  0
  -19.0878  -10.2074    4.3625 C   0  0  0  0  0  0  0  0  0  0  0  0
  -19.7649  -10.8449    5.3595 N   0  0  0  0  0  0  0  0  0  0  0  0
  -18.4775  -10.9674    3.4088 N   0  0  0  0  0  0  0  0  0  0  0  0
  -19.3988   -6.8967    8.6562 C   0  0  0  0  0  0  0  0  0  0  0  0
  -20.3135   -6.4839    7.6492 C   0  0  0  0  0  0  0  0  0  0  0  0
  -21.2677   -5.4679    7.9344 C   0  0  0  0  0  0  0  0  0  0  0  0
  -21.3050   -4.8686    9.2227 C   0  0  0  0  0  0  0  0  0  0  0  0
  -20.3911   -5.2839   10.2265 C   0  0  0  0  0  0  0  0  0  0  0  0
  -19.4377   -6.2969    9.9427 C   0  0  0  0  0  0  0  0  0  0  0  0
  2  4  1  0  0  0  0
  3  5  1  0  0  0  0
  4  7  1  0  0  0  0
  6  1  1  0  0  0  0
  7 10  1  0  0  0  0
  8  6  1  0  0  0  0
  8 11  1  0  0  0  0
  9  6  1  0  0  0  0
 10 13  1  0  0  0  0
 11 14  1  0  0  0  0
 12  9  1  0  0  0  0
 14 12  1  0  0  0  0
 14 15  1  0  0  0  0
 15 16  1  0  0  0  0
 15 17  1  0  0  0  0
 18  2  1  0  0  0  0
 18 23  2  0  0  0  0
 19  1  1  0  0  0  0
 19 18  1  0  0  0  0
 20 19  2  0  0  0  0
 21  3  1  0  0  0  0
 21 20  1  0  0  0  0
 22 21  2  0  0  0  0
 22 23  1  0  0  0  0
M  END
>  <CHROM.1>
-172.31987999,-57.87116817,-152.33636468,82.77616972,-167.33932454,-106.96642249
65.49115876,-43.00397683,149.83261776,-92.01283603,48.80787828,-19.32858001
-7.55496458,7.00247134,2.22606611,-0.77248503,1.20404756

>  <Name>
1uui_lig

>  <RI>
0

>  <Rbt.Current_Directory>
/home/itssahil/PROJECTS/Mol_Feturizer/New_Systems/rnas/1uui

>  <Rbt.Executable>
rbdock ($Id: //depot/dev/client3/rdock/2013.1/src/exe/rbdock.cxx#4 $)

>  <Rbt.Library>
libRbt.so (2013.1, Build901 2013/11/27)

>  <Rbt.Parameter_File>
/export/apps/rDock/src/rDock_2013.1_src/data/scripts/dock_solv.prm

>  <Rbt.Receptor>
prm/blind_docking_60.prm

>  <SCORE>
-24.5469

>  <SCORE.INTER>
-17.5055

>  <SCORE.INTER.CONST>
1

>  <SCORE.INTER.POLAR>
-2.37709

>  <SCORE.INTER.ROT>
10

>  <SCORE.INTER.SOLV>
4.7463

>  <SCORE.INTER.VDW>
-15.5955

>  <SCORE.INTER.norm>
-0.761109

>  <SCORE.INTRA>
-7.0502

>  <SCORE.INTRA.DIHEDRAL>
-11.3432

>  <SCORE.INTRA.DIHEDRAL.0>
23.4151

>  <SCORE.INTRA.POLAR>
-0.616259

>  <SCORE.INTRA.POLAR.0>
0

>  <SCORE.INTRA.REPUL>
0.0973235

>  <SCORE.INTRA.REPUL.0>
0

>  <SCORE.INTRA.SOLV>
1.74051

>  <SCORE.INTRA.SOLV.lig_0>
-17.3568

>  <SCORE.INTRA.VDW>
-0.640209

>  <SCORE.INTRA.VDW.0>
1.0768

>  <SCORE.INTRA.norm>
-0.30653

>  <SCORE.RESTR>
0.0088235

>  <SCORE.RESTR.CAVITY>
0.0088235

>  <SCORE.RESTR.norm>
0.000383631

>  <SCORE.SYSTEM>
0

>  <SCORE.SYSTEM.CONST>
0

>  <SCORE.SYSTEM.DIHEDRAL>
0

>  <SCORE.SYSTEM.SOLV>
0

>  <SCORE.SYSTEM.norm>
0

>  <SCORE.heavy>
23

>  <SCORE.norm>
-1.06726

>  <RMSD>
13.792

$$$$
1uui_lig
 OpenBabel11021811413D
libRbt.so/2013.1/901 2013/11/27
 23 24  0  0  0  0  0  0  0  0999 V2000
  -20.1347   -7.8211    7.8717 C   0  0  0  0  0  0  0  0  0  0  0  0
  -17.7661   -7.9152    6.1887 O   0  0  0  0  0  0  0  0  0  0  0  0
  -22.8275   -8.7985    3.7177 O   0  0  0  0  0  0  0  0  0  0  0  0
  -17.0671   -9.1589    6.3248 C   0  0  0  0  0  0  0  0  0  0  0  0
  -23.4496   -7.5424    3.4359 C   0  0  0  0  0  0  0  0  0  0  0  0
  -19.4906   -6.4890    8.1169 N   0  0  0  0  0  0  0  0  0  0  0  0
  -17.1199   -9.6045    7.7869 C   0  0  0  0  0  0  0  0  0  0  0  0
  -18.8201   -6.4502    9.4449 C   0  0  0  0  0  0  0  0  0  0  0  0
  -20.4909   -5.3921    8.0343 C   0  0  0  0  0  0  0  0  0  0  0  0
  -16.2673   -8.6694    8.6505 C   0  0  0  0  0  0  0  0  0  0  0  0
  -19.8135   -6.6757   10.5974 C   0  0  0  0  0  0  0  0  0  0  0  0
  -21.6156   -5.5710    9.0683 C   0  0  0  0  0  0  0  0  0  0  0  0
  -16.1962   -9.1995   10.0305 N   0  0  0  0  0  0  0  0  0  0  0  0
  -21.2348   -6.5289   10.1525 N   0  0  0  0  0  0  0  0  0  0  0  0
  -22.2527   -7.1099   10.9316 C   0  0  0  0  0  0  0  0  0  0  0  0
  -22.4159   -8.4630   10.9686 N   0  0  0  0  0  0  0  0  0  0  0  0
  -23.1801   -6.3308   11.5581 N   0  0  0  0  0  0  0  0  0  0  0  0
  -19.0375   -8.1327    5.5703 C   0  0  0  0  0  0  0  0  0  0  0  0
  -20.2239   -8.0970    6.3528 C   0  0  0  0  0  0  0  0  0  0  0  0
  -21.4857   -8.3183    5.7340 C   0  0  0  0  0  0  0  0  0  0  0  0
  -21.5581   -8.5743    4.3378 C   0  0  0  0  0  0  0  0  0  0  0  0
  -20.3717   -8.6080    3.5589 C   0  0  0  0  0  0  0  0  0  0  0  0
  -19.1118   -8.3883    4.1755 C   0  0  0  0  0  0  0  0  0  0  0  0
  2  4  1  0  0  0  0
  3  5  1  0  0  0  0
  4  7  1  0  0  0  0
  6  1  1  0  0  0  0
  7 10  1  0  0  0  0
  8  6  1  0  0  0  0
  8 11  1  0  0  0  0
  9  6  1  0  0  0  0
 10 13  1  0  0  0  0
 11 14  1  0  0  0  0
 12  9  1  0  0  0  0
 14 12  1  0  0  0  0
 14 15  1  0  0  0  0
 15 16  1  0  0  0  0
 15 17  1  0  0  0  0
 18  2  1  0  0  0  0
 18 23  2  0  0  0  0
 19  1  1  0  0  0  0
 19 18  1  0  0  0  0
 20 19  2  0  0  0  0
 21  3  1  0  0  0  0
 21 20  1  0  0  0  0
 22 21  2  0  0  0  0
 22 23  1  0  0  0  0
M  END
>  <CHROM.1>
-104.77194627,-69.13031585,-153.40120131,-173.39910459,70.94948015,-71.56385520
-2.45617964,87.67948515,104.61545860,59.22292670,82.32176709,-20.08013681
-7.73218021,7.59057043,1.54006790,-0.26672324,1.34804274

>  <Name>
1uui_lig

>  <RI>
0

>  <Rbt.Current_Directory>
/home/itssahil/PROJECTS/Mol_Feturizer/New_Systems/rnas/1uui

>  <Rbt.Executable>
rbdock ($Id: //depot/dev/client3/rdock/2013.1/src/exe/rbdock.cxx#4 $)

>  <Rbt.Library>
libRbt.so (2013.1, Build901 2013/11/27)

>  <Rbt.Parameter_File>
/export/apps/rDock/src/rDock_2013.1_src/data/scripts/dock_solv.prm

>  <Rbt.Receptor>
prm/blind_docking_60.prm

>  <SCORE>
-27.9949

>  <SCORE.INTER>
-21.9706

>  <SCORE.INTER.CONST>
1

>  <SCORE.INTER.POLAR>
-3.21378

>  <SCORE.INTER.ROT>
10

>  <SCORE.INTER.SOLV>
5.67631

>  <SCORE.INTER.VDW>
-16.0932

>  <SCORE.INTER.norm>
-0.955244

>  <SCORE.INTRA>
-6.37006

>  <SCORE.INTRA.DIHEDRAL>
-1.65562

>  <SCORE.INTRA.DIHEDRAL.0>
23.4151

>  <SCORE.INTRA.POLAR>
-0.391785

>  <SCORE.INTRA.POLAR.0>
0

>  <SCORE.INTRA.REPUL>
0

>  <SCORE.INTRA.REPUL.0>
0

>  <SCORE.INTRA.SOLV>
0.408017

>  <SCORE.INTRA.SOLV.lig_0>
-17.3568

>  <SCORE.INTRA.VDW>
-4.41418

>  <SCORE.INTRA.VDW.0>
1.0768

>  <SCORE.INTRA.norm>
-0.276959

>  <SCORE.RESTR>
0.345788

>  <SCORE.RESTR.CAVITY>
0.345788

>  <SCORE.RESTR.norm>
0.0150343

>  <SCORE.SYSTEM>
0

>  <SCORE.SYSTEM.CONST>
0

>  <SCORE.SYSTEM.DIHEDRAL>
0

>  <SCORE.SYSTEM.SOLV>
0

>  <SCORE.SYSTEM.norm>
0

>  <SCORE.heavy>
23

>  <SCORE.norm>
-1.21717

>  <RMSD>
13.798

$$$$
1uui_lig
 OpenBabel11021811413D
libRbt.so/2013.1/901 2013/11/27
 23 24  0  0  0  0  0  0  0  0999 V2000
  -21.1133   -7.2206    7.0364 C   0  0  0  0  0  0  0  0  0  0  0  0
  -18.9097   -8.3252    8.5777 O   0  0  0  0  0  0  0  0  0  0  0  0
  -21.0067   -3.2694   10.1730 O   0  0  0  0  0  0  0  0  0  0  0  0
  -17.7831   -8.1343    7.7125 C   0  0  0  0  0  0  0  0  0  0  0  0
  -21.0879   -2.4074    9.0352 C   0  0  0  0  0  0  0  0  0  0  0  0
  -21.0767   -6.3366    5.8253 N   0  0  0  0  0  0  0  0  0  0  0  0
  -16.5429   -7.8518    8.5618 C   0  0  0  0  0  0  0  0  0  0  0  0
  -21.9385   -6.8750    4.7381 C   0  0  0  0  0  0  0  0  0  0  0  0
  -19.6858   -6.1799    5.3238 C   0  0  0  0  0  0  0  0  0  0  0  0
  -15.7839   -9.1552    8.8300 C   0  0  0  0  0  0  0  0  0  0  0  0
  -21.4796   -8.2690    4.2775 C   0  0  0  0  0  0  0  0  0  0  0  0
  -19.0655   -7.5341    4.9398 C   0  0  0  0  0  0  0  0  0  0  0  0
  -16.6855  -10.1245    9.4919 N   0  0  0  0  0  0  0  0  0  0  0  0
  -20.1029   -8.5976    4.7637 N   0  0  0  0  0  0  0  0  0  0  0  0
  -19.7054   -9.9467    4.8136 C   0  0  0  0  0  0  0  0  0  0  0  0
  -19.3295  -10.6051    3.6804 N   0  0  0  0  0  0  0  0  0  0  0  0
  -19.8151  -10.6624    5.9692 N   0  0  0  0  0  0  0  0  0  0  0  0
  -19.4400   -7.0585    8.9784 C   0  0  0  0  0  0  0  0  0  0  0  0
  -20.5174   -6.4780    8.2549 C   0  0  0  0  0  0  0  0  0  0  0  0
  -21.0385   -5.2160    8.6544 C   0  0  0  0  0  0  0  0  0  0  0  0
  -20.4827   -4.5391    9.7738 C   0  0  0  0  0  0  0  0  0  0  0  0
  -19.4078   -5.1219   10.4951 C   0  0  0  0  0  0  0  0  0  0  0  0
  -18.8861   -6.3808   10.0966 C   0  0  0  0  0  0  0  0  0  0  0  0
  2  4  1  0  0  0  0
  3  5  1  0  0  0  0
  4  7  1  0  0  0  0
  6  1  1  0  0  0  0
  7 10  1  0  0  0  0
  8  6  1  0  0  0  0
  8 11  1  0  0  0  0
  9  6  1  0  0  0  0
 10 13  1  0  0  0  0
 11 14  1  0  0  0  0
 12  9  1  0  0  0  0
 14 12  1  0  0  0  0
 14 15  1  0  0  0  0
 15 16  1  0  0  0  0
 15 17  1  0  0  0  0
 18  2  1  0  0  0  0
 18 23  2  0  0  0  0
 19  1  1  0  0  0  0
 19 18  1  0  0  0  0
 20 19  2  0  0  0  0
 21  3  1  0  0  0  0
 21 20  1  0  0  0  0
 22 21  2  0  0  0  0
 22 23  1  0  0  0  0
M  END
>  <CHROM.1>
81.55178763,93.79131436,-165.67043754,-57.13997014,-127.03767732,77.98241071
-161.71064284,-79.72010687,94.42465479,-124.56191874,-49.68008404,-19.58007492
-7.29498841,7.36237282,1.76971555,-0.76694608,0.84027452

>  <Name>
1uui_lig

>  <RI>
0

>  <Rbt.Current_Directory>
/home/itssahil/PROJECTS/Mol_Feturizer/New_Systems/rnas/1uui

>  <Rbt.Executable>
rbdock ($Id: //depot/dev/client3/rdock/2013.1/src/exe/rbdock.cxx#4 $)

>  <Rbt.Library>
libRbt.so (2013.1, Build901 2013/11/27)

>  <Rbt.Parameter_File>
/export/apps/rDock/src/rDock_2013.1_src/data/scripts/dock_solv.prm

>  <Rbt.Receptor>
prm/blind_docking_60.prm

>  <SCORE>
-20.6709

>  <SCORE.INTER>
-17.6014

>  <SCORE.INTER.CONST>
1

>  <SCORE.INTER.POLAR>
-2.71463

>  <SCORE.INTER.ROT>
10

>  <SCORE.INTER.SOLV>
3.72879

>  <SCORE.INTER.VDW>
-14.1951

>  <SCORE.INTER.norm>
-0.765277

>  <SCORE.INTRA>
-3.24337

>  <SCORE.INTRA.DIHEDRAL>
-2.13248

>  <SCORE.INTRA.DIHEDRAL.0>
23.4151

>  <SCORE.INTRA.POLAR>
-0.510279

>  <SCORE.INTRA.POLAR.0>
0

>  <SCORE.INTRA.REPUL>
0

>  <SCORE.INTRA.REPUL.0>
0

>  <SCORE.INTRA.SOLV>
1.10861

>  <SCORE.INTRA.SOLV.lig_0>
-17.3568

>  <SCORE.INTRA.VDW>
-0.996488

>  <SCORE.INTRA.VDW.0>
1.0768

>  <SCORE.INTRA.norm>
-0.141016

>  <SCORE.RESTR>
0.173791

>  <SCORE.RESTR.CAVITY>
0.173791

>  <SCORE.RESTR.norm>
0.00755615

>  <SCORE.SYSTEM>
0

>  <SCORE.SYSTEM.CONST>
0

>  <SCORE.SYSTEM.DIHEDRAL>
0

>  <SCORE.SYSTEM.SOLV>
0

>  <SCORE.SYSTEM.norm>
0

>  <SCORE.heavy>
23

>  <SCORE.norm>
-0.898737

>  <RMSD>
13.807

$$$$
1uui_lig
 OpenBabel11021811413D
libRbt.so/2013.1/901 2013/11/27
 23 24  0  0  0  0  0  0  0  0999 V2000
  -19.8169   -4.6807    9.0403 C   0  0  0  0  0  0  0  0  0  0  0  0
  -18.9593   -7.1254    7.7215 O   0  0  0  0  0  0  0  0  0  0  0  0
  -18.6395   -6.9132   13.4097 O   0  0  0  0  0  0  0  0  0  0  0  0
  -17.6753   -6.8434    7.1506 C   0  0  0  0  0  0  0  0  0  0  0  0
  -19.9515   -7.0171   13.9682 C   0  0  0  0  0  0  0  0  0  0  0  0
  -20.6629   -5.1443    7.8920 N   0  0  0  0  0  0  0  0  0  0  0  0
  -17.8636   -6.3563    5.7131 C   0  0  0  0  0  0  0  0  0  0  0  0
  -20.3839   -4.3535    6.6626 C   0  0  0  0  0  0  0  0  0  0  0  0
  -22.1088   -5.0493    8.2251 C   0  0  0  0  0  0  0  0  0  0  0  0
  -18.5574   -7.4387    4.8800 C   0  0  0  0  0  0  0  0  0  0  0  0
  -20.6908   -2.8591    6.8580 C   0  0  0  0  0  0  0  0  0  0  0  0
  -22.5194   -3.6057    8.5625 C   0  0  0  0  0  0  0  0  0  0  0  0
  -18.9375   -6.8805    3.5630 N   0  0  0  0  0  0  0  0  0  0  0  0
  -21.5120   -2.6086    8.0838 N   0  0  0  0  0  0  0  0  0  0  0  0
  -21.5168   -1.3180    8.6449 C   0  0  0  0  0  0  0  0  0  0  0  0
  -20.5792   -0.9545    9.5656 N   0  0  0  0  0  0  0  0  0  0  0  0
  -22.5346   -0.4490    8.3831 N   0  0  0  0  0  0  0  0  0  0  0  0
  -18.8836   -7.0713    9.1489 C   0  0  0  0  0  0  0  0  0  0  0  0
  -19.2911   -5.8965    9.8382 C   0  0  0  0  0  0  0  0  0  0  0  0
  -19.2097   -5.8457   11.2576 C   0  0  0  0  0  0  0  0  0  0  0  0
  -18.7223   -6.9668   11.9827 C   0  0  0  0  0  0  0  0  0  0  0  0
  -18.3173   -8.1389   11.2916 C   0  0  0  0  0  0  0  0  0  0  0  0
  -18.3970   -8.1904    9.8750 C   0  0  0  0  0  0  0  0  0  0  0  0
  2  4  1  0  0  0  0
  3  5  1  0  0  0  0
  4  7  1  0  0  0  0
  6  1  1  0  0  0  0
  7 10  1  0  0  0  0
  8  6  1  0  0  0  0
  8 11  1  0  0  0  0
  9  6  1  0  0  0  0
 10 13  1  0  0  0  0
 11 14  1  0  0  0  0
 12  9  1  0  0  0  0
 14 12  1  0  0  0  0
 14 15  1  0  0  0  0
 15 16  1  0  0  0  0
 15 17  1  0  0  0  0
 18  2  1  0  0  0  0
 18 23  2  0  0  0  0
 19  1  1  0  0  0  0
 19 18  1  0  0  0  0
 20 19  2  0  0  0  0
 21  3  1  0  0  0  0
 21 20  1  0  0  0  0
 22 21  2  0  0  0  0
 22 23  1  0  0  0  0
M  END
>  <CHROM.1>
-157.51701966,-60.30995194,-138.51730633,170.60889444,-53.19876132,-88.01920357
43.99352023,-132.95464619,98.19775103,38.71546448,74.02518027,-19.83989688
-5.24274595,8.71062913,2.43336863,1.04677525,-1.48117711

>  <Name>
1uui_lig

>  <RI>
0

>  <Rbt.Current_Directory>
/home/itssahil/PROJECTS/Mol_Feturizer/New_Systems/rnas/1uui

>  <Rbt.Executable>
rbdock ($Id: //depot/dev/client3/rdock/2013.1/src/exe/rbdock.cxx#4 $)

>  <Rbt.Library>
libRbt.so (2013.1, Build901 2013/11/27)

>  <Rbt.Parameter_File>
/export/apps/rDock/src/rDock_2013.1_src/data/scripts/dock_solv.prm

>  <Rbt.Receptor>
prm/blind_docking_40.prm

>  <SCORE>
-27.2581

>  <SCORE.INTER>
-19.6918

>  <SCORE.INTER.CONST>
1

>  <SCORE.INTER.POLAR>
-3.71743

>  <SCORE.INTER.ROT>
10

>  <SCORE.INTER.SOLV>
5.96429

>  <SCORE.INTER.VDW>
-12.9912

>  <SCORE.INTER.norm>
-0.856165

>  <SCORE.INTRA>
-7.69748

>  <SCORE.INTRA.DIHEDRAL>
-4.65735

>  <SCORE.INTRA.DIHEDRAL.0>
23.4151

>  <SCORE.INTRA.POLAR>
-0.703054

>  <SCORE.INTRA.POLAR.0>
0

>  <SCORE.INTRA.REPUL>
0

>  <SCORE.INTRA.REPUL.0>
0

>  <SCORE.INTRA.SOLV>
0.41726

>  <SCORE.INTRA.SOLV.lig_0>
-17.3568

>  <SCORE.INTRA.VDW>
-3.18705

>  <SCORE.INTRA.VDW.0>
1.0768

>  <SCORE.INTRA.norm>
-0.334673

>  <SCORE.RESTR>
0.131188

>  <SCORE.RESTR.CAVITY>
0.131188

>  <SCORE.RESTR.norm>
0.00570384

>  <SCORE.SYSTEM>
0

>  <SCORE.SYSTEM.CONST>
0

>  <SCORE.SYSTEM.DIHEDRAL>
0

>  <SCORE.SYSTEM.SOLV>
0

>  <SCORE.SYSTEM.norm>
0

>  <SCORE.heavy>
23

>  <SCORE.norm>
-1.18513

>  <RMSD>
13.809

$$$$
1uui_lig
 OpenBabel11021811413D
libRbt.so/2013.1/901 2013/11/27
 23 24  0  0  0  0  0  0  0  0999 V2000
  -20.7840   -7.9045    7.3895 C   0  0  0  0  0  0  0  0  0  0  0  0
  -18.5639   -8.0404    9.2615 O   0  0  0  0  0  0  0  0  0  0  0  0
  -22.1186   -3.6010    9.6611 O   0  0  0  0  0  0  0  0  0  0  0  0
  -17.6652   -7.8484    8.1617 C   0  0  0  0  0  0  0  0  0  0  0  0
  -21.5032   -2.4465    9.0845 C   0  0  0  0  0  0  0  0  0  0  0  0
  -21.6194   -7.3550    6.2717 N   0  0  0  0  0  0  0  0  0  0  0  0
  -16.4256   -8.7194    8.3713 C   0  0  0  0  0  0  0  0  0  0  0  0
  -21.9462   -8.4095    5.2738 C   0  0  0  0  0  0  0  0  0  0  0  0
  -20.9249   -6.2288    5.5936 C   0  0  0  0  0  0  0  0  0  0  0  0
  -16.8421  -10.1236    8.8206 C   0  0  0  0  0  0  0  0  0  0  0  0
  -20.6822   -9.0006    4.6267 C   0  0  0  0  0  0  0  0  0  0  0  0
  -19.5745   -6.6686    5.0026 C   0  0  0  0  0  0  0  0  0  0  0  0
  -17.5964  -10.7866    7.7334 N   0  0  0  0  0  0  0  0  0  0  0  0
  -19.4728   -8.1561    4.8796 N   0  0  0  0  0  0  0  0  0  0  0  0
  -18.1988   -8.7395    4.7486 C   0  0  0  0  0  0  0  0  0  0  0  0
  -18.0140  -10.0700    4.9821 N   0  0  0  0  0  0  0  0  0  0  0  0
  -17.0995   -7.9663    4.5179 N   0  0  0  0  0  0  0  0  0  0  0  0
  -19.4593   -6.9294    9.3623 C   0  0  0  0  0  0  0  0  0  0  0  0
  -20.5592   -6.8196    8.4682 C   0  0  0  0  0  0  0  0  0  0  0  0
  -21.4445   -5.7106    8.5694 C   0  0  0  0  0  0  0  0  0  0  0  0
  -21.2285   -4.7164    9.5620 C   0  0  0  0  0  0  0  0  0  0  0  0
  -20.1301   -4.8295   10.4542 C   0  0  0  0  0  0  0  0  0  0  0  0
  -19.2453   -5.9353   10.3534 C   0  0  0  0  0  0  0  0  0  0  0  0
  2  4  1  0  0  0  0
  3  5  1  0  0  0  0
  4  7  1  0  0  0  0
  6  1  1  0  0  0  0
  7 10  1  0  0  0  0
  8  6  1  0  0  0  0
  8 11  1  0  0  0  0
  9  6  1  0  0  0  0
 10 13  1  0  0  0  0
 11 14  1  0  0  0  0
 12  9  1  0  0  0  0
 14 12  1  0  0  0  0
 14 15  1  0  0  0  0
 15 16  1  0  0  0  0
 15 17  1  0  0  0  0
 18  2  1  0  0  0  0
 18 23  2  0  0  0  0
 19  1  1  0  0  0  0
 19 18  1  0  0  0  0
 20 19  2  0  0  0  0
 21  3  1  0  0  0  0
 21 20  1  0  0  0  0
 22 21  2  0  0  0  0
 22 23  1  0  0  0  0
M  END
>  <CHROM.1>
158.83766300,44.82234843,-175.29698191,65.12270752,-71.27616118,-29.00383629
175.24561041,-144.10893583,77.28066492,-158.29641080,-102.87025754,-19.57468443
-7.31706213,7.39110137,2.23306383,-0.72410850,1.08896969

>  <Name>
1uui_lig

>  <RI>
0

>  <Rbt.Current_Directory>
/home/itssahil/PROJECTS/Mol_Feturizer/New_Systems/rnas/1uui

>  <Rbt.Executable>
rbdock ($Id: //depot/dev/client3/rdock/2013.1/src/exe/rbdock.cxx#4 $)

>  <Rbt.Library>
libRbt.so (2013.1, Build901 2013/11/27)

>  <Rbt.Parameter_File>
/export/apps/rDock/src/rDock_2013.1_src/data/scripts/dock_solv.prm

>  <Rbt.Receptor>
prm/blind_docking_60.prm

>  <SCORE>
-33.478

>  <SCORE.INTER>
-28.0182

>  <SCORE.INTER.CONST>
1

>  <SCORE.INTER.POLAR>
-4.07285

>  <SCORE.INTER.ROT>
10

>  <SCORE.INTER.SOLV>
6.05452

>  <SCORE.INTER.VDW>
-17.3875

>  <SCORE.INTER.norm>
-1.21818

>  <SCORE.INTRA>
-5.63733

>  <SCORE.INTRA.DIHEDRAL>
-6.61025

>  <SCORE.INTRA.DIHEDRAL.0>
23.4151

>  <SCORE.INTRA.POLAR>
-0.452994

>  <SCORE.INTRA.POLAR.0>
0

>  <SCORE.INTRA.REPUL>
0

>  <SCORE.INTRA.REPUL.0>
0

>  <SCORE.INTRA.SOLV>
2.21977

>  <SCORE.INTRA.SOLV.lig_0>
-17.3568

>  <SCORE.INTRA.VDW>
-1.90191

>  <SCORE.INTRA.VDW.0>
1.0768

>  <SCORE.INTRA.norm>
-0.245101

>  <SCORE.RESTR>
0.17759

>  <SCORE.RESTR.CAVITY>
0.17759

>  <SCORE.RESTR.norm>
0.00772129

>  <SCORE.SYSTEM>
0

>  <SCORE.SYSTEM.CONST>
0

>  <SCORE.SYSTEM.DIHEDRAL>
0

>  <SCORE.SYSTEM.SOLV>
0

>  <SCORE.SYSTEM.norm>
0

>  <SCORE.heavy>
23

>  <SCORE.norm>
-1.45556

>  <RMSD>
13.833

$$$$
1uui_lig
 OpenBabel11021811413D
libRbt.so/2013.1/901 2013/11/27
 23 24  0  0  0  0  0  0  0  0999 V2000
  -21.7075   -5.0894    9.2763 C   0  0  0  0  0  0  0  0  0  0  0  0
  -20.3786   -2.5129    9.4936 O   0  0  0  0  0  0  0  0  0  0  0  0
  -19.1301   -5.7841    4.9942 O   0  0  0  0  0  0  0  0  0  0  0  0
  -21.7255   -2.0326    9.3982 C   0  0  0  0  0  0  0  0  0  0  0  0
  -20.0938   -5.5666    3.9608 C   0  0  0  0  0  0  0  0  0  0  0  0
  -22.2452   -6.4369    8.8959 N   0  0  0  0  0  0  0  0  0  0  0  0
  -21.8236   -1.0483    8.2316 C   0  0  0  0  0  0  0  0  0  0  0  0
  -23.3738   -6.8365    9.7799 C   0  0  0  0  0  0  0  0  0  0  0  0
  -21.1784   -7.4707    8.9558 C   0  0  0  0  0  0  0  0  0  0  0  0
  -21.1871    0.2898    8.6205 C   0  0  0  0  0  0  0  0  0  0  0  0
  -22.9429   -6.9363   11.2530 C   0  0  0  0  0  0  0  0  0  0  0  0
  -20.5759   -7.5830   10.3667 C   0  0  0  0  0  0  0  0  0  0  0  0
  -19.7133    0.1540    8.6213 N   0  0  0  0  0  0  0  0  0  0  0  0
  -21.4541   -6.9577   11.4040 N   0  0  0  0  0  0  0  0  0  0  0  0
  -20.8936   -6.6135   12.6481 C   0  0  0  0  0  0  0  0  0  0  0  0
  -21.0907   -7.4010   13.7435 N   0  0  0  0  0  0  0  0  0  0  0  0
  -20.2559   -5.4201   12.8180 N   0  0  0  0  0  0  0  0  0  0  0  0
  -20.0698   -3.3338    8.3635 C   0  0  0  0  0  0  0  0  0  0  0  0
  -20.6942   -4.6023    8.2146 C   0  0  0  0  0  0  0  0  0  0  0  0
  -20.3806   -5.4171    7.0914 C   0  0  0  0  0  0  0  0  0  0  0  0
  -19.4456   -4.9627    6.1220 C   0  0  0  0  0  0  0  0  0  0  0  0
  -18.8248   -3.6950    6.2728 C   0  0  0  0  0  0  0  0  0  0  0  0
  -19.1362   -2.8815    7.3939 C   0  0  0  0  0  0  0  0  0  0  0  0
  2  4  1  0  0  0  0
  3  5  1  0  0  0  0
  4  7  1  0  0  0  0
  6  1  1  0  0  0  0
  7 10  1  0  0  0  0
  8  6  1  0  0  0  0
  8 11  1  0  0  0  0
  9  6  1  0  0  0  0
 10 13  1  0  0  0  0
 11 14  1  0  0  0  0
 12  9  1  0  0  0  0
 14 12  1  0  0  0  0
 14 15  1  0  0  0  0
 15 16  1  0  0  0  0
 15 17  1  0  0  0  0
 18  2  1  0  0  0  0
 18 23  2  0  0  0  0
 19  1  1  0  0  0  0
 19 18  1  0  0  0  0
 20 19  2  0  0  0  0
 21  3  1  0  0  0  0
 21 20  1  0  0  0  0
 22 21  2  0  0  0  0
 22 23  1  0  0  0  0
M  END
>  <CHROM.1>
-68.08320494,-75.23953757,-171.12780159,74.45492678,-47.80512610,66.44354371
133.55345280,-43.58670699,-68.97458632,179.15116696,85.19386148,-20.79721038
-4.68623875,8.99953427,-2.69824746,1.32074202,0.29232612

>  <Name>
1uui_lig

>  <RI>
0

>  <Rbt.Current_Directory>
/home/itssahil/PROJECTS/Mol_Feturizer/New_Systems/rnas/1uui

>  <Rbt.Executable>
rbdock ($Id: //depot/dev/client3/rdock/2013.1/src/exe/rbdock.cxx#4 $)

>  <Rbt.Library>
libRbt.so (2013.1, Build901 2013/11/27)

>  <Rbt.Parameter_File>
/export/apps/rDock/src/rDock_2013.1_src/data/scripts/dock_solv.prm

>  <Rbt.Receptor>
prm/blind_docking_40.prm

>  <SCORE>
-35.6569

>  <SCORE.INTER>
-29.6551

>  <SCORE.INTER.CONST>
1

>  <SCORE.INTER.POLAR>
-4.3916

>  <SCORE.INTER.ROT>
10

>  <SCORE.INTER.SOLV>
6.81958

>  <SCORE.INTER.VDW>
-17.6712

>  <SCORE.INTER.norm>
-1.28935

>  <SCORE.INTRA>
-6.00188

>  <SCORE.INTRA.DIHEDRAL>
-7.67783

>  <SCORE.INTRA.DIHEDRAL.0>
23.4151

>  <SCORE.INTRA.POLAR>
-0.504118

>  <SCORE.INTRA.POLAR.0>
0

>  <SCORE.INTRA.REPUL>
0

>  <SCORE.INTRA.REPUL.0>
0

>  <SCORE.INTRA.SOLV>
0.605192

>  <SCORE.INTRA.SOLV.lig_0>
-17.3568

>  <SCORE.INTRA.VDW>
-0.751565

>  <SCORE.INTRA.VDW.0>
1.0768

>  <SCORE.INTRA.norm>
-0.260951

>  <SCORE.RESTR>
0

>  <SCORE.RESTR.CAVITY>
0

>  <SCORE.RESTR.norm>
0

>  <SCORE.SYSTEM>
0

>  <SCORE.SYSTEM.CONST>
0

>  <SCORE.SYSTEM.DIHEDRAL>
0

>  <SCORE.SYSTEM.SOLV>
0

>  <SCORE.SYSTEM.norm>
0

>  <SCORE.heavy>
23

>  <SCORE.norm>
-1.5503

>  <RMSD>
13.838

$$$$
1uui_lig
 OpenBabel11021811413D
libRbt.so/2013.1/901 2013/11/27
 23 24  0  0  0  0  0  0  0  0999 V2000
  -19.6608   -6.9088    9.2407 C   0  0  0  0  0  0  0  0  0  0  0  0
  -16.9662   -7.8137    8.6308 O   0  0  0  0  0  0  0  0  0  0  0  0
  -20.9779   -8.5082    4.6398 O   0  0  0  0  0  0  0  0  0  0  0  0
  -16.4125   -9.0856    8.9906 C   0  0  0  0  0  0  0  0  0  0  0  0
  -20.7226   -7.6251    3.5448 C   0  0  0  0  0  0  0  0  0  0  0  0
  -20.0280   -5.4679    9.0444 N   0  0  0  0  0  0  0  0  0  0  0  0
  -15.4267   -8.8933   10.1441 C   0  0  0  0  0  0  0  0  0  0  0  0
  -19.6987   -4.6583   10.2489 C   0  0  0  0  0  0  0  0  0  0  0  0
  -21.4747   -5.3263    8.7322 C   0  0  0  0  0  0  0  0  0  0  0  0
  -16.1853   -8.5454   11.4288 C   0  0  0  0  0  0  0  0  0  0  0  0
  -20.4644   -5.1403   11.4928 C   0  0  0  0  0  0  0  0  0  0  0  0
  -22.3562   -5.8895    9.8600 C   0  0  0  0  0  0  0  0  0  0  0  0
  -15.2296   -8.4429   12.5543 N   0  0  0  0  0  0  0  0  0  0  0  0
  -21.5966   -6.0526   11.1385 N   0  0  0  0  0  0  0  0  0  0  0  0
  -22.1130   -6.9088   12.1289 C   0  0  0  0  0  0  0  0  0  0  0  0
  -21.3002   -7.4337   13.0895 N   0  0  0  0  0  0  0  0  0  0  0  0
  -23.4057   -7.3392   12.0718 N   0  0  0  0  0  0  0  0  0  0  0  0
  -17.9736   -7.9834    7.6295 C   0  0  0  0  0  0  0  0  0  0  0  0
  -19.3060   -7.5569    7.8824 C   0  0  0  0  0  0  0  0  0  0  0  0
  -20.3055   -7.7319    6.8852 C   0  0  0  0  0  0  0  0  0  0  0  0
  -19.9713   -8.3314    5.6405 C   0  0  0  0  0  0  0  0  0  0  0  0
  -18.6396   -8.7551    5.3906 C   0  0  0  0  0  0  0  0  0  0  0  0
  -17.6416   -8.5820    6.3854 C   0  0  0  0  0  0  0  0  0  0  0  0
  2  4  1  0  0  0  0
  3  5  1  0  0  0  0
  4  7  1  0  0  0  0
  6  1  1  0  0  0  0
  7 10  1  0  0  0  0
  8  6  1  0  0  0  0
  8 11  1  0  0  0  0
  9  6  1  0  0  0  0
 10 13  1  0  0  0  0
 11 14  1  0  0  0  0
 12  9  1  0  0  0  0
 14 12  1  0  0  0  0
 14 15  1  0  0  0  0
 15 16  1  0  0  0  0
 15 17  1  0  0  0  0
 18  2  1  0  0  0  0
 18 23  2  0  0  0  0
 19  1  1  0  0  0  0
 19 18  1  0  0  0  0
 20 19  2  0  0  0  0
 21  3  1  0  0  0  0
 21 20  1  0  0  0  0
 22 21  2  0  0  0  0
 22 23  1  0  0  0  0
M  END
>  <CHROM.1>
-175.18486371,70.67173569,-150.75585394,176.57792652,111.23849867,-33.27942900
118.96219429,131.07377705,120.45834718,113.39401335,110.46074852,-19.46964519
-7.34407717,9.07666932,1.79341396,-0.35909341,1.40990180

>  <Name>
1uui_lig

>  <RI>
0

>  <Rbt.Current_Directory>
/home/itssahil/PROJECTS/Mol_Feturizer/New_Systems/rnas/1uui

>  <Rbt.Executable>
rbdock ($Id: //depot/dev/client3/rdock/2013.1/src/exe/rbdock.cxx#4 $)

>  <Rbt.Library>
libRbt.so (2013.1, Build901 2013/11/27)

>  <Rbt.Parameter_File>
/export/apps/rDock/src/rDock_2013.1_src/data/scripts/dock_solv.prm

>  <Rbt.Receptor>
prm/blind_docking_40.prm

>  <SCORE>
-30.2532

>  <SCORE.INTER>
-26.717

>  <SCORE.INTER.CONST>
1

>  <SCORE.INTER.POLAR>
-2.64283

>  <SCORE.INTER.ROT>
10

>  <SCORE.INTER.SOLV>
7.87595

>  <SCORE.INTER.VDW>
-21.8939

>  <SCORE.INTER.norm>
-1.16161

>  <SCORE.INTRA>
-3.65009

>  <SCORE.INTRA.DIHEDRAL>
-5.58727

>  <SCORE.INTRA.DIHEDRAL.0>
23.4151

>  <SCORE.INTRA.POLAR>
0

>  <SCORE.INTRA.POLAR.0>
0

>  <SCORE.INTRA.REPUL>
0

>  <SCORE.INTRA.REPUL.0>
0

>  <SCORE.INTRA.SOLV>
-0.00584288

>  <SCORE.INTRA.SOLV.lig_0>
-17.3568

>  <SCORE.INTRA.VDW>
-0.853531

>  <SCORE.INTRA.VDW.0>
1.0768

>  <SCORE.INTRA.norm>
-0.158699

>  <SCORE.RESTR>
0.113884

>  <SCORE.RESTR.CAVITY>
0.113884

>  <SCORE.RESTR.norm>
0.00495147

>  <SCORE.SYSTEM>
0

>  <SCORE.SYSTEM.CONST>
0

>  <SCORE.SYSTEM.DIHEDRAL>
0

>  <SCORE.SYSTEM.SOLV>
0

>  <SCORE.SYSTEM.norm>
0

>  <SCORE.heavy>
23

>  <SCORE.norm>
-1.31536

>  <RMSD>
13.846

$$$$
1uui_lig
 OpenBabel11021811413D
libRbt.so/2013.1/901 2013/11/27
 23 24  0  0  0  0  0  0  0  0999 V2000
  -19.9021   -7.0908    9.0404 C   0  0  0  0  0  0  0  0  0  0  0  0
  -18.7811   -8.5688    6.8021 O   0  0  0  0  0  0  0  0  0  0  0  0
  -16.2194   -9.0617   11.8714 O   0  0  0  0  0  0  0  0  0  0  0  0
  -17.8978   -7.9321    5.8702 C   0  0  0  0  0  0  0  0  0  0  0  0
  -16.1888   -7.7857   12.5155 C   0  0  0  0  0  0  0  0  0  0  0  0
  -20.6956   -7.0798   10.3131 N   0  0  0  0  0  0  0  0  0  0  0  0
  -18.0320   -6.4151    6.0109 C   0  0  0  0  0  0  0  0  0  0  0  0
  -22.1035   -6.6649   10.0675 C   0  0  0  0  0  0  0  0  0  0  0  0
  -20.0788   -6.1717   11.3157 C   0  0  0  0  0  0  0  0  0  0  0  0
  -17.5764   -5.7271    4.7201 C   0  0  0  0  0  0  0  0  0  0  0  0
  -22.1910   -5.2444    9.4840 C   0  0  0  0  0  0  0  0  0  0  0  0
  -19.9970   -4.7258   10.7970 C   0  0  0  0  0  0  0  0  0  0  0  0
  -18.5669   -5.9796    3.6498 N   0  0  0  0  0  0  0  0  0  0  0  0
  -20.9032   -4.4959    9.6290 N   0  0  0  0  0  0  0  0  0  0  0  0
  -20.6652   -3.3878    8.7947 C   0  0  0  0  0  0  0  0  0  0  0  0
  -20.4946   -3.5503    7.4517 N   0  0  0  0  0  0  0  0  0  0  0  0
  -20.4663   -2.1473    9.3249 N   0  0  0  0  0  0  0  0  0  0  0  0
  -18.1423   -8.6940    8.0758 C   0  0  0  0  0  0  0  0  0  0  0  0
  -18.6540   -7.9896    9.1998 C   0  0  0  0  0  0  0  0  0  0  0  0
  -18.0127   -8.1137   10.4636 C   0  0  0  0  0  0  0  0  0  0  0  0
  -16.8640   -8.9397   10.6003 C   0  0  0  0  0  0  0  0  0  0  0  0
  -16.3563   -9.6427    9.4764 C   0  0  0  0  0  0  0  0  0  0  0  0
  -16.9948   -9.5189    8.2144 C   0  0  0  0  0  0  0  0  0  0  0  0
  2  4  1  0  0  0  0
  3  5  1  0  0  0  0
  4  7  1  0  0  0  0
  6  1  1  0  0  0  0
  7 10  1  0  0  0  0
  8  6  1  0  0  0  0
  8 11  1  0  0  0  0
  9  6  1  0  0  0  0
 10 13  1  0  0  0  0
 11 14  1  0  0  0  0
 12  9  1  0  0  0  0
 14 12  1  0  0  0  0
 14 15  1  0  0  0  0
 15 16  1  0  0  0  0
 15 17  1  0  0  0  0
 18  2  1  0  0  0  0
 18 23  2  0  0  0  0
 19  1  1  0  0  0  0
 19 18  1  0  0  0  0
 20 19  2  0  0  0  0
 21  3  1  0  0  0  0
 21 20  1  0  0  0  0
 22 21  2  0  0  0  0
 22 23  1  0  0  0  0
M  END
>  <CHROM.1>
-85.61229235,-157.22421904,-159.18756187,70.81699646,-141.08884005,-67.04140116
153.91134482,-68.79365467,115.04645880,148.39834440,-40.10707777,-18.97425183
-6.66694794,8.80803989,2.68382960,0.86933446,-1.39081563

>  <Name>
1uui_lig

>  <RI>
0

>  <Rbt.Current_Directory>
/home/itssahil/PROJECTS/Mol_Feturizer/New_Systems/rnas/1uui

>  <Rbt.Executable>
rbdock ($Id: //depot/dev/client3/rdock/2013.1/src/exe/rbdock.cxx#4 $)

>  <Rbt.Library>
libRbt.so (2013.1, Build901 2013/11/27)

>  <Rbt.Parameter_File>
/export/apps/rDock/src/rDock_2013.1_src/data/scripts/dock_solv.prm

>  <Rbt.Receptor>
prm/blind_docking_40.prm

>  <SCORE>
-22.1228

>  <SCORE.INTER>
-21.1244

>  <SCORE.INTER.CONST>
1

>  <SCORE.INTER.POLAR>
-2.8065

>  <SCORE.INTER.ROT>
10

>  <SCORE.INTER.SOLV>
5.04039

>  <SCORE.INTER.VDW>
-16.6747

>  <SCORE.INTER.norm>
-0.918451

>  <SCORE.INTRA>
-1.03099

>  <SCORE.INTRA.DIHEDRAL>
-4.72365

>  <SCORE.INTRA.DIHEDRAL.0>
23.4151

>  <SCORE.INTRA.POLAR>
0

>  <SCORE.INTRA.POLAR.0>
0

>  <SCORE.INTRA.REPUL>
0

>  <SCORE.INTRA.REPUL.0>
0

>  <SCORE.INTRA.SOLV>
0.196826

>  <SCORE.INTRA.SOLV.lig_0>
-17.3568

>  <SCORE.INTRA.VDW>
1.23242

>  <SCORE.INTRA.VDW.0>
1.0768

>  <SCORE.INTRA.norm>
-0.0448257

>  <SCORE.RESTR>
0.0325441

>  <SCORE.RESTR.CAVITY>
0.0325441

>  <SCORE.RESTR.norm>
0.00141496

>  <SCORE.SYSTEM>
0

>  <SCORE.SYSTEM.CONST>
0

>  <SCORE.SYSTEM.DIHEDRAL>
0

>  <SCORE.SYSTEM.SOLV>
0

>  <SCORE.SYSTEM.norm>
0

>  <SCORE.heavy>
23

>  <SCORE.norm>
-0.961862

>  <RMSD>
13.847

$$$$
1uui_lig
 OpenBabel11021811413D
libRbt.so/2013.1/901 2013/11/27
 23 24  0  0  0  0  0  0  0  0999 V2000
  -19.4322   -7.2402    7.2983 C   0  0  0  0  0  0  0  0  0  0  0  0
  -18.9708   -7.5599   10.1507 O   0  0  0  0  0  0  0  0  0  0  0  0
  -21.5873   -2.8103    8.3904 O   0  0  0  0  0  0  0  0  0  0  0  0
  -17.9678   -7.2322   11.1206 C   0  0  0  0  0  0  0  0  0  0  0  0
  -20.7701   -1.6773    8.6948 C   0  0  0  0  0  0  0  0  0  0  0  0
  -17.9666   -7.1017    7.0118 N   0  0  0  0  0  0  0  0  0  0  0  0
  -17.5152   -8.5128   11.8238 C   0  0  0  0  0  0  0  0  0  0  0  0
  -17.7063   -7.0428    5.5477 C   0  0  0  0  0  0  0  0  0  0  0  0
  -17.2002   -8.2283    7.6066 C   0  0  0  0  0  0  0  0  0  0  0  0
  -16.0403   -8.7873   11.5135 C   0  0  0  0  0  0  0  0  0  0  0  0
  -18.1749   -8.3192    4.8285 C   0  0  0  0  0  0  0  0  0  0  0  0
  -17.6643   -9.5857    7.0515 C   0  0  0  0  0  0  0  0  0  0  0  0
  -15.2122   -8.4157   12.6825 N   0  0  0  0  0  0  0  0  0  0  0  0
  -18.4477   -9.4368    5.7857 N   0  0  0  0  0  0  0  0  0  0  0  0
  -19.2734  -10.4984    5.3712 C   0  0  0  0  0  0  0  0  0  0  0  0
  -18.7456  -11.5886    4.7452 N   0  0  0  0  0  0  0  0  0  0  0  0
  -20.6304  -10.4019    5.4641 N   0  0  0  0  0  0  0  0  0  0  0  0
  -19.6305   -6.3708    9.7071 C   0  0  0  0  0  0  0  0  0  0  0  0
  -19.8775   -6.1697    8.3215 C   0  0  0  0  0  0  0  0  0  0  0  0
  -20.5299   -4.9835    7.8846 C   0  0  0  0  0  0  0  0  0  0  0  0
  -20.9330   -4.0033    8.8318 C   0  0  0  0  0  0  0  0  0  0  0  0
  -20.6862   -4.2075   10.2147 C   0  0  0  0  0  0  0  0  0  0  0  0
  -20.0341   -5.3905   10.6518 C   0  0  0  0  0  0  0  0  0  0  0  0
  2  4  1  0  0  0  0
  3  5  1  0  0  0  0
  4  7  1  0  0  0  0
  6  1  1  0  0  0  0
  7 10  1  0  0  0  0
  8  6  1  0  0  0  0
  8 11  1  0  0  0  0
  9  6  1  0  0  0  0
 10 13  1  0  0  0  0
 11 14  1  0  0  0  0
 12  9  1  0  0  0  0
 14 12  1  0  0  0  0
 14 15  1  0  0  0  0
 15 16  1  0  0  0  0
 15 17  1  0  0  0  0
 18  2  1  0  0  0  0
 18 23  2  0  0  0  0
 19  1  1  0  0  0  0
 19 18  1  0  0  0  0
 20 19  2  0  0  0  0
 21  3  1  0  0  0  0
 21 20  1  0  0  0  0
 22 21  2  0  0  0  0
 22 23  1  0  0  0  0
M  END
>  <CHROM.1>
166.44647545,115.61473913,-128.87759281,103.33777152,177.01962492,88.97522363
-156.25235595,-148.59806915,135.21682658,-80.01152457,-116.11989712,-18.86875966
-7.25586916,8.28944748,1.18141287,0.92045214,-2.23378145

>  <Name>
1uui_lig

>  <RI>
0

>  <Rbt.Current_Directory>
/home/itssahil/PROJECTS/Mol_Feturizer/New_Systems/rnas/1uui

>  <Rbt.Executable>
rbdock ($Id: //depot/dev/client3/rdock/2013.1/src/exe/rbdock.cxx#4 $)

>  <Rbt.Library>
libRbt.so (2013.1, Build901 2013/11/27)

>  <Rbt.Parameter_File>
/export/apps/rDock/src/rDock_2013.1_src/data/scripts/dock_solv.prm

>  <Rbt.Receptor>
prm/blind_docking_100.prm

>  <SCORE>
-17.3177

>  <SCORE.INTER>
-16.7395

>  <SCORE.INTER.CONST>
1

>  <SCORE.INTER.POLAR>
-1.69443

>  <SCORE.INTER.ROT>
10

>  <SCORE.INTER.SOLV>
5.79431

>  <SCORE.INTER.VDW>
-17.7097

>  <SCORE.INTER.norm>
-0.727806

>  <SCORE.INTRA>
-1.09093

>  <SCORE.INTRA.DIHEDRAL>
1.48985

>  <SCORE.INTRA.DIHEDRAL.0>
23.4151

>  <SCORE.INTRA.POLAR>
0

>  <SCORE.INTRA.POLAR.0>
0

>  <SCORE.INTRA.REPUL>
0

>  <SCORE.INTRA.REPUL.0>
0

>  <SCORE.INTRA.SOLV>
0.201657

>  <SCORE.INTRA.SOLV.lig_0>
-17.3568

>  <SCORE.INTRA.VDW>
-1.93668

>  <SCORE.INTRA.VDW.0>
1.0768

>  <SCORE.INTRA.norm>
-0.0474316

>  <SCORE.RESTR>
0.512722

>  <SCORE.RESTR.CAVITY>
0.512722

>  <SCORE.RESTR.norm>
0.0222922

>  <SCORE.SYSTEM>
0

>  <SCORE.SYSTEM.CONST>
0

>  <SCORE.SYSTEM.DIHEDRAL>
0

>  <SCORE.SYSTEM.SOLV>
0

>  <SCORE.SYSTEM.norm>
0

>  <SCORE.heavy>
23

>  <SCORE.norm>
-0.752945

>  <RMSD>
13.851

$$$$
1uui_lig
 OpenBabel11021811413D
libRbt.so/2013.1/901 2013/11/27
 23 24  0  0  0  0  0  0  0  0999 V2000
  -19.9269   -6.0442    6.2431 C   0  0  0  0  0  0  0  0  0  0  0  0
  -22.0594   -6.5965    8.1402 O   0  0  0  0  0  0  0  0  0  0  0  0
  -19.6103   -1.4509    8.3078 O   0  0  0  0  0  0  0  0  0  0  0  0
  -21.4321   -7.4658    9.0915 C   0  0  0  0  0  0  0  0  0  0  0  0
  -20.6063   -0.4404    8.1322 C   0  0  0  0  0  0  0  0  0  0  0  0
  -19.7522   -5.4101    4.8952 N   0  0  0  0  0  0  0  0  0  0  0  0
  -22.4665   -7.8975   10.1321 C   0  0  0  0  0  0  0  0  0  0  0  0
  -20.3393   -6.2561    3.8208 C   0  0  0  0  0  0  0  0  0  0  0  0
  -18.3144   -5.1671    4.6049 C   0  0  0  0  0  0  0  0  0  0  0  0
  -22.4836   -6.9030   11.2973 C   0  0  0  0  0  0  0  0  0  0  0  0
  -19.6680   -7.6380    3.7456 C   0  0  0  0  0  0  0  0  0  0  0  0
  -17.5036   -6.4741    4.6213 C   0  0  0  0  0  0  0  0  0  0  0  0
  -23.6880   -7.1338   12.1260 N   0  0  0  0  0  0  0  0  0  0  0  0
  -18.3806   -7.6808    4.5074 N   0  0  0  0  0  0  0  0  0  0  0  0
  -17.8690   -8.9301    4.9049 C   0  0  0  0  0  0  0  0  0  0  0  0
  -17.2979   -9.0910    6.1325 N   0  0  0  0  0  0  0  0  0  0  0  0
  -17.8107   -9.9703    4.0250 N   0  0  0  0  0  0  0  0  0  0  0  0
  -21.4460   -5.3048    8.1778 C   0  0  0  0  0  0  0  0  0  0  0  0
  -20.3985   -4.9887    7.2701 C   0  0  0  0  0  0  0  0  0  0  0  0
  -19.7884   -3.7043    7.3143 C   0  0  0  0  0  0  0  0  0  0  0  0
  -20.2261   -2.7412    8.2636 C   0  0  0  0  0  0  0  0  0  0  0  0
  -21.2732   -3.0594    9.1678 C   0  0  0  0  0  0  0  0  0  0  0  0
  -21.8820   -4.3413    9.1254 C   0  0  0  0  0  0  0  0  0  0  0  0
  2  4  1  0  0  0  0
  3  5  1  0  0  0  0
  4  7  1  0  0  0  0
  6  1  1  0  0  0  0
  7 10  1  0  0  0  0
  8  6  1  0  0  0  0
  8 11  1  0  0  0  0
  9  6  1  0  0  0  0
 10 13  1  0  0  0  0
 11 14  1  0  0  0  0
 12  9  1  0  0  0  0
 14 12  1  0  0  0  0
 14 15  1  0  0  0  0
 15 16  1  0  0  0  0
 15 17  1  0  0  0  0
 18  2  1  0  0  0  0
 18 23  2  0  0  0  0
 19  1  1  0  0  0  0
 19 18  1  0  0  0  0
 20 19  2  0  0  0  0
 21  3  1  0  0  0  0
 21 20  1  0  0  0  0
 22 21  2  0  0  0  0
 22 23  1  0  0  0  0
M  END
>  <CHROM.1>
117.86732400,-89.64434841,-135.34717847,166.45136980,53.61157834,-139.85495531
25.91823637,167.39217019,94.57319240,135.66127204,122.99233041,-20.18474139
-5.91139817,7.14518900,-0.51569245,0.96783700,0.04593993

>  <Name>
1uui_lig

>  <RI>
0

>  <Rbt.Current_Directory>
/home/itssahil/PROJECTS/Mol_Feturizer/New_Systems/rnas/1uui

>  <Rbt.Executable>
rbdock ($Id: //depot/dev/client3/rdock/2013.1/src/exe/rbdock.cxx#4 $)

>  <Rbt.Library>
libRbt.so (2013.1, Build901 2013/11/27)

>  <Rbt.Parameter_File>
/export/apps/rDock/src/rDock_2013.1_src/data/scripts/dock_solv.prm

>  <Rbt.Receptor>
prm/blind_docking_40.prm

>  <SCORE>
-30.6631

>  <SCORE.INTER>
-30.1988

>  <SCORE.INTER.CONST>
1

>  <SCORE.INTER.POLAR>
-4.1461

>  <SCORE.INTER.ROT>
10

>  <SCORE.INTER.SOLV>
8.25017

>  <SCORE.INTER.VDW>
-19.3289

>  <SCORE.INTER.norm>
-1.31299

>  <SCORE.INTRA>
-0.464319

>  <SCORE.INTRA.DIHEDRAL>
2.75288

>  <SCORE.INTRA.DIHEDRAL.0>
23.4151

>  <SCORE.INTRA.POLAR>
0

>  <SCORE.INTRA.POLAR.0>
0

>  <SCORE.INTRA.REPUL>
0

>  <SCORE.INTRA.REPUL.0>
0

>  <SCORE.INTRA.SOLV>
-0.0188576

>  <SCORE.INTRA.SOLV.lig_0>
-17.3568

>  <SCORE.INTRA.VDW>
-1.83133

>  <SCORE.INTRA.VDW.0>
1.0768

>  <SCORE.INTRA.norm>
-0.0201878

>  <SCORE.RESTR>
0

>  <SCORE.RESTR.CAVITY>
0

>  <SCORE.RESTR.norm>
0

>  <SCORE.SYSTEM>
0

>  <SCORE.SYSTEM.CONST>
0

>  <SCORE.SYSTEM.DIHEDRAL>
0

>  <SCORE.SYSTEM.SOLV>
0

>  <SCORE.SYSTEM.norm>
0

>  <SCORE.heavy>
23

>  <SCORE.norm>
-1.33318

>  <RMSD>
13.852

$$$$
1uui_lig
 OpenBabel11021811413D
libRbt.so/2013.1/901 2013/11/27
 23 24  0  0  0  0  0  0  0  0999 V2000
  -19.7471   -6.9175    8.8653 C   0  0  0  0  0  0  0  0  0  0  0  0
  -17.0326   -7.9356    9.0809 O   0  0  0  0  0  0  0  0  0  0  0  0
  -19.9474   -9.1059    4.3229 O   0  0  0  0  0  0  0  0  0  0  0  0
  -17.1028   -9.0484    9.9812 C   0  0  0  0  0  0  0  0  0  0  0  0
  -20.5480  -10.3981    4.4397 C   0  0  0  0  0  0  0  0  0  0  0  0
  -20.3014   -5.6390    8.3108 N   0  0  0  0  0  0  0  0  0  0  0  0
  -15.9403   -8.9642   10.9715 C   0  0  0  0  0  0  0  0  0  0  0  0
  -19.7769   -4.4584    9.0496 C   0  0  0  0  0  0  0  0  0  0  0  0
  -21.7872   -5.6370    8.3637 C   0  0  0  0  0  0  0  0  0  0  0  0
  -16.3604   -8.1584   12.2049 C   0  0  0  0  0  0  0  0  0  0  0  0
  -20.1621   -4.4940   10.5383 C   0  0  0  0  0  0  0  0  0  0  0  0
  -22.3037   -5.7908    9.8045 C   0  0  0  0  0  0  0  0  0  0  0  0
  -15.4400   -8.4547   13.3254 N   0  0  0  0  0  0  0  0  0  0  0  0
  -21.2434   -5.4906   10.8164 N   0  0  0  0  0  0  0  0  0  0  0  0
  -21.4102   -5.9609   12.1323 C   0  0  0  0  0  0  0  0  0  0  0  0
  -20.4036   -5.8496   13.0452 N   0  0  0  0  0  0  0  0  0  0  0  0
  -22.5280   -6.6572   12.4862 N   0  0  0  0  0  0  0  0  0  0  0  0
  -17.7645   -8.2247    7.8864 C   0  0  0  0  0  0  0  0  0  0  0  0
  -19.0957   -7.7487    7.7357 C   0  0  0  0  0  0  0  0  0  0  0  0
  -19.8213   -8.0425    6.5478 C   0  0  0  0  0  0  0  0  0  0  0  0
  -19.2157   -8.8098    5.5158 C   0  0  0  0  0  0  0  0  0  0  0  0
  -17.8859   -9.2827    5.6687 C   0  0  0  0  0  0  0  0  0  0  0  0
  -17.1612   -8.9909    6.8542 C   0  0  0  0  0  0  0  0  0  0  0  0
  2  4  1  0  0  0  0
  3  5  1  0  0  0  0
  4  7  1  0  0  0  0
  6  1  1  0  0  0  0
  7 10  1  0  0  0  0
  8  6  1  0  0  0  0
  8 11  1  0  0  0  0
  9  6  1  0  0  0  0
 10 13  1  0  0  0  0
 11 14  1  0  0  0  0
 12  9  1  0  0  0  0
 14 12  1  0  0  0  0
 14 15  1  0  0  0  0
 15 16  1  0  0  0  0
 15 17  1  0  0  0  0
 18  2  1  0  0  0  0
 18 23  2  0  0  0  0
 19  1  1  0  0  0  0
 19 18  1  0  0  0  0
 20 19  2  0  0  0  0
 21  3  1  0  0  0  0
 21 20  1  0  0  0  0
 22 21  2  0  0  0  0
 22 23  1  0  0  0  0
M  END
>  <CHROM.1>
158.97425308,89.93900815,-126.12613861,161.03149480,155.48045685,-19.52395659
104.89706349,-90.88199668,97.72863381,127.83129390,-95.82959095,-19.25979175
-7.38459484,9.13613393,1.45959538,0.52383779,-1.91905139

>  <Name>
1uui_lig

>  <RI>
0

>  <Rbt.Current_Directory>
/home/itssahil/PROJECTS/Mol_Feturizer/New_Systems/rnas/1uui

>  <Rbt.Executable>
rbdock ($Id: //depot/dev/client3/rdock/2013.1/src/exe/rbdock.cxx#4 $)

>  <Rbt.Library>
libRbt.so (2013.1, Build901 2013/11/27)

>  <Rbt.Parameter_File>
/export/apps/rDock/src/rDock_2013.1_src/data/scripts/dock_solv.prm

>  <Rbt.Receptor>
prm/blind_docking_80.prm

>  <SCORE>
-27.1205

>  <SCORE.INTER>
-25.6009

>  <SCORE.INTER.CONST>
1

>  <SCORE.INTER.POLAR>
-3.12124

>  <SCORE.INTER.ROT>
10

>  <SCORE.INTER.SOLV>
7.6969

>  <SCORE.INTER.VDW>
-19.4954

>  <SCORE.INTER.norm>
-1.11308

>  <SCORE.INTRA>
-1.52449

>  <SCORE.INTRA.DIHEDRAL>
1.1771

>  <SCORE.INTRA.DIHEDRAL.0>
23.4151

>  <SCORE.INTRA.POLAR>
0

>  <SCORE.INTRA.POLAR.0>
0

>  <SCORE.INTRA.REPUL>
0

>  <SCORE.INTRA.REPUL.0>
0

>  <SCORE.INTRA.SOLV>
-0.0525308

>  <SCORE.INTRA.SOLV.lig_0>
-17.3568

>  <SCORE.INTRA.VDW>
-2.08678

>  <SCORE.INTRA.VDW.0>
1.0768

>  <SCORE.INTRA.norm>
-0.0662822

>  <SCORE.RESTR>
0.00491294

>  <SCORE.RESTR.CAVITY>
0.00491294

>  <SCORE.RESTR.norm>
0.000213606

>  <SCORE.SYSTEM>
0

>  <SCORE.SYSTEM.CONST>
0

>  <SCORE.SYSTEM.DIHEDRAL>
0

>  <SCORE.SYSTEM.SOLV>
0

>  <SCORE.SYSTEM.norm>
0

>  <SCORE.heavy>
23

>  <SCORE.norm>
-1.17915

>  <RMSD>
13.852

$$$$
1uui_lig
 OpenBabel11021811413D
libRbt.so/2013.1/901 2013/11/27
 23 24  0  0  0  0  0  0  0  0999 V2000
  -18.4519   -5.7405    6.9643 C   0  0  0  0  0  0  0  0  0  0  0  0
  -19.1586   -7.4098    9.2370 O   0  0  0  0  0  0  0  0  0  0  0  0
  -20.4832   -1.8702    9.4854 O   0  0  0  0  0  0  0  0  0  0  0  0
  -20.2149   -8.1433    8.6044 C   0  0  0  0  0  0  0  0  0  0  0  0
  -21.7698   -1.6579    8.8991 C   0  0  0  0  0  0  0  0  0  0  0  0
  -19.2235   -5.4031    5.7232 N   0  0  0  0  0  0  0  0  0  0  0  0
  -21.3756   -8.2971    9.5885 C   0  0  0  0  0  0  0  0  0  0  0  0
  -20.4392   -6.2521    5.5964 C   0  0  0  0  0  0  0  0  0  0  0  0
  -18.3775   -5.5644    4.5114 C   0  0  0  0  0  0  0  0  0  0  0  0
  -22.3704   -7.1460    9.4089 C   0  0  0  0  0  0  0  0  0  0  0  0
  -20.0894   -7.7470    5.5023 C   0  0  0  0  0  0  0  0  0  0  0  0
  -17.8595   -7.0058    4.3689 C   0  0  0  0  0  0  0  0  0  0  0  0
  -23.6892   -7.5440    9.9502 N   0  0  0  0  0  0  0  0  0  0  0  0
  -18.6388   -7.9684    5.2082 N   0  0  0  0  0  0  0  0  0  0  0  0
  -18.0684   -9.2186    5.5116 C   0  0  0  0  0  0  0  0  0  0  0  0
  -17.2290   -9.3620    6.5764 N   0  0  0  0  0  0  0  0  0  0  0  0
  -18.2338  -10.2811    4.6729 N   0  0  0  0  0  0  0  0  0  0  0  0
  -19.4934   -6.0204    9.2955 C   0  0  0  0  0  0  0  0  0  0  0  0
  -19.1672   -5.1643    8.2082 C   0  0  0  0  0  0  0  0  0  0  0  0
  -19.4981   -3.7822    8.2728 C   0  0  0  0  0  0  0  0  0  0  0  0
  -20.1529   -3.2605    9.4215 C   0  0  0  0  0  0  0  0  0  0  0  0
  -20.4785   -4.1181   10.5049 C   0  0  0  0  0  0  0  0  0  0  0  0
  -20.1477   -5.4974   10.4421 C   0  0  0  0  0  0  0  0  0  0  0  0
  2  4  1  0  0  0  0
  3  5  1  0  0  0  0
  4  7  1  0  0  0  0
  6  1  1  0  0  0  0
  7 10  1  0  0  0  0
  8  6  1  0  0  0  0
  8 11  1  0  0  0  0
  9  6  1  0  0  0  0
 10 13  1  0  0  0  0
 11 14  1  0  0  0  0
 12  9  1  0  0  0  0
 14 12  1  0  0  0  0
 14 15  1  0  0  0  0
 15 16  1  0  0  0  0
 15 17  1  0  0  0  0
 18  2  1  0  0  0  0
 18 23  2  0  0  0  0
 19  1  1  0  0  0  0
 19 18  1  0  0  0  0
 20 19  2  0  0  0  0
 21  3  1  0  0  0  0
 21 20  1  0  0  0  0
 22 21  2  0  0  0  0
 22 23  1  0  0  0  0
M  END
>  <CHROM.1>
-75.77542179,92.20271961,-75.34907639,158.54132647,169.16975493,-106.38158544
-139.84496315,-29.44533668,-87.77499191,126.02835909,87.96375665,-19.79018006
-6.33424835,7.62986953,-0.82795314,0.94629182,0.11350843

>  <Name>
1uui_lig

>  <RI>
0

>  <Rbt.Current_Directory>
/home/itssahil/PROJECTS/Mol_Feturizer/New_Systems/rnas/1uui

>  <Rbt.Executable>
rbdock ($Id: //depot/dev/client3/rdock/2013.1/src/exe/rbdock.cxx#4 $)

>  <Rbt.Library>
libRbt.so (2013.1, Build901 2013/11/27)

>  <Rbt.Parameter_File>
/export/apps/rDock/src/rDock_2013.1_src/data/scripts/dock_solv.prm

>  <Rbt.Receptor>
prm/blind_docking_100.prm

>  <SCORE>
-31.0352

>  <SCORE.INTER>
-27.7703

>  <SCORE.INTER.CONST>
1

>  <SCORE.INTER.POLAR>
-4.11427

>  <SCORE.INTER.ROT>
10

>  <SCORE.INTER.SOLV>
7.66979

>  <SCORE.INTER.VDW>
-17.6226

>  <SCORE.INTER.norm>
-1.2074

>  <SCORE.INTRA>
-4.16983

>  <SCORE.INTRA.DIHEDRAL>
-2.89354

>  <SCORE.INTRA.DIHEDRAL.0>
23.4151

>  <SCORE.INTRA.POLAR>
0

>  <SCORE.INTRA.POLAR.0>
0

>  <SCORE.INTRA.REPUL>
0

>  <SCORE.INTRA.REPUL.0>
0

>  <SCORE.INTRA.SOLV>
0.6711

>  <SCORE.INTRA.SOLV.lig_0>
-17.3568

>  <SCORE.INTRA.VDW>
-3.05861

>  <SCORE.INTRA.VDW.0>
1.0768

>  <SCORE.INTRA.norm>
-0.181297

>  <SCORE.RESTR>
0.90494

>  <SCORE.RESTR.CAVITY>
0.90494

>  <SCORE.RESTR.norm>
0.0393452

>  <SCORE.SYSTEM>
0

>  <SCORE.SYSTEM.CONST>
0

>  <SCORE.SYSTEM.DIHEDRAL>
0

>  <SCORE.SYSTEM.SOLV>
0

>  <SCORE.SYSTEM.norm>
0

>  <SCORE.heavy>
23

>  <SCORE.norm>
-1.34936

>  <RMSD>
13.870

$$$$
1uui_lig
 OpenBabel11021811413D
libRbt.so/2013.1/901 2013/11/27
 23 24  0  0  0  0  0  0  0  0999 V2000
  -19.6960   -6.2248    8.4568 C   0  0  0  0  0  0  0  0  0  0  0  0
  -19.3822   -7.8675    6.0789 O   0  0  0  0  0  0  0  0  0  0  0  0
  -15.6146   -8.5474   10.3033 O   0  0  0  0  0  0  0  0  0  0  0  0
  -20.2103   -9.0316    5.9639 C   0  0  0  0  0  0  0  0  0  0  0  0
  -16.3037   -8.8737   11.5127 C   0  0  0  0  0  0  0  0  0  0  0  0
  -20.6948   -6.6891    9.4747 N   0  0  0  0  0  0  0  0  0  0  0  0
  -20.1425   -9.5535    4.5279 C   0  0  0  0  0  0  0  0  0  0  0  0
  -22.0809   -6.3203    9.0777 C   0  0  0  0  0  0  0  0  0  0  0  0
  -20.3938   -6.1173   10.8136 C   0  0  0  0  0  0  0  0  0  0  0  0
  -18.7478  -10.1191    4.2416 C   0  0  0  0  0  0  0  0  0  0  0  0
  -22.2573   -4.7974    8.9532 C   0  0  0  0  0  0  0  0  0  0  0  0
  -20.4201   -4.5794   10.7926 C   0  0  0  0  0  0  0  0  0  0  0  0
  -18.5642  -11.3828    4.9897 N   0  0  0  0  0  0  0  0  0  0  0  0
  -21.1295   -4.0461    9.5882 N   0  0  0  0  0  0  0  0  0  0  0  0
  -20.9019   -2.7116    9.2035 C   0  0  0  0  0  0  0  0  0  0  0  0
  -19.6998   -2.3309    8.6851 N   0  0  0  0  0  0  0  0  0  0  0  0
  -21.8275   -1.7446    9.4640 N   0  0  0  0  0  0  0  0  0  0  0  0
  -18.4404   -8.0391    7.1417 C   0  0  0  0  0  0  0  0  0  0  0  0
  -18.5528   -7.2577    8.3240 C   0  0  0  0  0  0  0  0  0  0  0  0
  -17.6111   -7.4286    9.3766 C   0  0  0  0  0  0  0  0  0  0  0  0
  -16.5617   -8.3782    9.2448 C   0  0  0  0  0  0  0  0  0  0  0  0
  -16.4528   -9.1579    8.0635 C   0  0  0  0  0  0  0  0  0  0  0  0
  -17.3914   -8.9874    7.0119 C   0  0  0  0  0  0  0  0  0  0  0  0
  2  4  1  0  0  0  0
  3  5  1  0  0  0  0
  4  7  1  0  0  0  0
  6  1  1  0  0  0  0
  7 10  1  0  0  0  0
  8  6  1  0  0  0  0
  8 11  1  0  0  0  0
  9  6  1  0  0  0  0
 10 13  1  0  0  0  0
 11 14  1  0  0  0  0
 12  9  1  0  0  0  0
 14 12  1  0  0  0  0
 14 15  1  0  0  0  0
 15 16  1  0  0  0  0
 15 17  1  0  0  0  0
 18  2  1  0  0  0  0
 18 23  2  0  0  0  0
 19  1  1  0  0  0  0
 19 18  1  0  0  0  0
 20 19  2  0  0  0  0
 21  3  1  0  0  0  0
 21 20  1  0  0  0  0
 22 21  2  0  0  0  0
 22 23  1  0  0  0  0
M  END
>  <CHROM.1>
-125.49603610,68.68434423,-143.83434523,70.76506848,-49.12078952,-121.81094832
55.35770628,94.74098640,-111.34350656,109.80464371,56.69064003,-19.28939402
-6.94964356,8.30887901,2.11888861,-0.69169967,0.83784569

>  <Name>
1uui_lig

>  <RI>
0

>  <Rbt.Current_Directory>
/home/itssahil/PROJECTS/Mol_Feturizer/New_Systems/rnas/1uui

>  <Rbt.Executable>
rbdock ($Id: //depot/dev/client3/rdock/2013.1/src/exe/rbdock.cxx#4 $)

>  <Rbt.Library>
libRbt.so (2013.1, Build901 2013/11/27)

>  <Rbt.Parameter_File>
/export/apps/rDock/src/rDock_2013.1_src/data/scripts/dock_solv.prm

>  <Rbt.Receptor>
prm/blind_docking_100.prm

>  <SCORE>
-26.4906

>  <SCORE.INTER>
-23.8429

>  <SCORE.INTER.CONST>
1

>  <SCORE.INTER.POLAR>
-2.89652

>  <SCORE.INTER.ROT>
10

>  <SCORE.INTER.SOLV>
6.87315

>  <SCORE.INTER.VDW>
-18.798

>  <SCORE.INTER.norm>
-1.03665

>  <SCORE.INTRA>
-2.65377

>  <SCORE.INTRA.DIHEDRAL>
-1.27293

>  <SCORE.INTRA.DIHEDRAL.0>
23.4151

>  <SCORE.INTRA.POLAR>
0

>  <SCORE.INTRA.POLAR.0>
0

>  <SCORE.INTRA.REPUL>
0

>  <SCORE.INTRA.REPUL.0>
0

>  <SCORE.INTRA.SOLV>
0.421578

>  <SCORE.INTRA.SOLV.lig_0>
-17.3568

>  <SCORE.INTRA.VDW>
-2.22809

>  <SCORE.INTRA.VDW.0>
1.0768

>  <SCORE.INTRA.norm>
-0.115381

>  <SCORE.RESTR>
0.00605746

>  <SCORE.RESTR.CAVITY>
0.00605746

>  <SCORE.RESTR.norm>
0.000263368

>  <SCORE.SYSTEM>
0

>  <SCORE.SYSTEM.CONST>
0

>  <SCORE.SYSTEM.DIHEDRAL>
0

>  <SCORE.SYSTEM.SOLV>
0

>  <SCORE.SYSTEM.norm>
0

>  <SCORE.heavy>
23

>  <SCORE.norm>
-1.15177

>  <RMSD>
13.870

$$$$
1uui_lig
 OpenBabel11021811413D
libRbt.so/2013.1/901 2013/11/27
 23 24  0  0  0  0  0  0  0  0999 V2000
  -19.5165   -7.3733    9.1113 C   0  0  0  0  0  0  0  0  0  0  0  0
  -16.6935   -7.8087    8.5707 O   0  0  0  0  0  0  0  0  0  0  0  0
  -20.4777  -10.0481    4.9420 O   0  0  0  0  0  0  0  0  0  0  0  0
  -15.9228   -8.8540    9.1768 C   0  0  0  0  0  0  0  0  0  0  0  0
  -21.1727  -11.1211    5.5822 C   0  0  0  0  0  0  0  0  0  0  0  0
  -18.7959   -6.0597    9.1790 N   0  0  0  0  0  0  0  0  0  0  0  0
  -16.6358   -9.3308   10.4431 C   0  0  0  0  0  0  0  0  0  0  0  0
  -18.9730   -5.4151   10.5085 C   0  0  0  0  0  0  0  0  0  0  0  0
  -19.2709   -5.1377    8.1137 C   0  0  0  0  0  0  0  0  0  0  0  0
  -16.5972   -8.2327   11.5107 C   0  0  0  0  0  0  0  0  0  0  0  0
  -20.4517   -5.1201   10.8122 C   0  0  0  0  0  0  0  0  0  0  0  0
  -20.7783   -4.8570    8.2372 C   0  0  0  0  0  0  0  0  0  0  0  0
  -15.5923   -8.5800   12.5403 N   0  0  0  0  0  0  0  0  0  0  0  0
  -21.3082   -5.2183    9.5889 N   0  0  0  0  0  0  0  0  0  0  0  0
  -22.6938   -5.4090    9.7446 C   0  0  0  0  0  0  0  0  0  0  0  0
  -23.1773   -6.4938   10.4140 N   0  0  0  0  0  0  0  0  0  0  0  0
  -23.5842   -4.5889    9.1166 N   0  0  0  0  0  0  0  0  0  0  0  0
  -17.6447   -8.3663    7.6595 C   0  0  0  0  0  0  0  0  0  0  0  0
  -19.0364   -8.1804    7.8828 C   0  0  0  0  0  0  0  0  0  0  0  0
  -19.9788   -8.7408    6.9763 C   0  0  0  0  0  0  0  0  0  0  0  0
  -19.5287   -9.4839    5.8514 C   0  0  0  0  0  0  0  0  0  0  0  0
  -18.1383   -9.6667    5.6304 C   0  0  0  0  0  0  0  0  0  0  0  0
  -17.1969   -9.1089    6.5350 C   0  0  0  0  0  0  0  0  0  0  0  0
  2  4  1  0  0  0  0
  3  5  1  0  0  0  0
  4  7  1  0  0  0  0
  6  1  1  0  0  0  0
  7 10  1  0  0  0  0
  8  6  1  0  0  0  0
  8 11  1  0  0  0  0
  9  6  1  0  0  0  0
 10 13  1  0  0  0  0
 11 14  1  0  0  0  0
 12  9  1  0  0  0  0
 14 12  1  0  0  0  0
 14 15  1  0  0  0  0
 15 16  1  0  0  0  0
 15 17  1  0  0  0  0
 18  2  1  0  0  0  0
 18 23  2  0  0  0  0
 19  1  1  0  0  0  0
 19 18  1  0  0  0  0
 20 19  2  0  0  0  0
 21  3  1  0  0  0  0
 21 20  1  0  0  0  0
 22 21  2  0  0  0  0
 22 23  1  0  0  0  0
M  END
>  <CHROM.1>
-88.95973206,-68.44984000,-165.73777164,-104.27733816,50.12182890,-58.57585000
157.81863061,102.43762533,118.16672549,50.38262294,-69.75088506,-19.28545978
-7.51114219,8.68098440,-2.54401267,0.46045222,-2.23124615

>  <Name>
1uui_lig

>  <RI>
0

>  <Rbt.Current_Directory>
/home/itssahil/PROJECTS/Mol_Feturizer/New_Systems/rnas/1uui

>  <Rbt.Executable>
rbdock ($Id: //depot/dev/client3/rdock/2013.1/src/exe/rbdock.cxx#4 $)

>  <Rbt.Library>
libRbt.so (2013.1, Build901 2013/11/27)

>  <Rbt.Parameter_File>
/export/apps/rDock/src/rDock_2013.1_src/data/scripts/dock_solv.prm

>  <Rbt.Receptor>
prm/blind_docking_80.prm

>  <SCORE>
-31.0457

>  <SCORE.INTER>
-24.702

>  <SCORE.INTER.CONST>
1

>  <SCORE.INTER.POLAR>
-2.73287

>  <SCORE.INTER.ROT>
10

>  <SCORE.INTER.SOLV>
7.83724

>  <SCORE.INTER.VDW>
-20.2375

>  <SCORE.INTER.norm>
-1.074

>  <SCORE.INTRA>
-6.36477

>  <SCORE.INTRA.DIHEDRAL>
-2.14898

>  <SCORE.INTRA.DIHEDRAL.0>
23.4151

>  <SCORE.INTRA.POLAR>
-0.697833

>  <SCORE.INTRA.POLAR.0>
0

>  <SCORE.INTRA.REPUL>
0

>  <SCORE.INTRA.REPUL.0>
0

>  <SCORE.INTRA.SOLV>
0.414491

>  <SCORE.INTRA.SOLV.lig_0>
-17.3568

>  <SCORE.INTRA.VDW>
-3.12489

>  <SCORE.INTRA.VDW.0>
1.0768

>  <SCORE.INTRA.norm>
-0.276729

>  <SCORE.RESTR>
0.0210711

>  <SCORE.RESTR.CAVITY>
0.0210711

>  <SCORE.RESTR.norm>
0.000916135

>  <SCORE.SYSTEM>
0

>  <SCORE.SYSTEM.CONST>
0

>  <SCORE.SYSTEM.DIHEDRAL>
0

>  <SCORE.SYSTEM.SOLV>
0

>  <SCORE.SYSTEM.norm>
0

>  <SCORE.heavy>
23

>  <SCORE.norm>
-1.34981

>  <RMSD>
13.892

$$$$
1uui_lig
 OpenBabel11021811413D
libRbt.so/2013.1/901 2013/11/27
 23 24  0  0  0  0  0  0  0  0999 V2000
  -19.1400   -6.7610    9.1409 C   0  0  0  0  0  0  0  0  0  0  0  0
  -16.8155   -8.2755   10.0094 O   0  0  0  0  0  0  0  0  0  0  0  0
  -18.4569   -8.7962    4.5744 O   0  0  0  0  0  0  0  0  0  0  0  0
  -16.6307   -9.5734   10.5884 C   0  0  0  0  0  0  0  0  0  0  0  0
  -18.5766  -10.1823    4.2450 C   0  0  0  0  0  0  0  0  0  0  0  0
  -19.6698   -5.5681    8.4021 N   0  0  0  0  0  0  0  0  0  0  0  0
  -16.6059   -9.4420   12.1120 C   0  0  0  0  0  0  0  0  0  0  0  0
  -19.8607   -4.4088    9.3155 C   0  0  0  0  0  0  0  0  0  0  0  0
  -20.9574   -5.8878    7.7309 C   0  0  0  0  0  0  0  0  0  0  0  0
  -15.4797   -8.4947   12.5377 C   0  0  0  0  0  0  0  0  0  0  0  0
  -20.8720   -4.7173   10.4326 C   0  0  0  0  0  0  0  0  0  0  0  0
  -22.0287   -6.3323    8.7413 C   0  0  0  0  0  0  0  0  0  0  0  0
  -15.5234   -8.3031   14.0046 N   0  0  0  0  0  0  0  0  0  0  0  0
  -21.6732   -5.9476   10.1427 N   0  0  0  0  0  0  0  0  0  0  0  0
  -22.3109   -6.6086   11.2091 C   0  0  0  0  0  0  0  0  0  0  0  0
  -23.4202   -7.3713   10.9930 N   0  0  0  0  0  0  0  0  0  0  0  0
  -21.9162   -6.3941   12.4966 N   0  0  0  0  0  0  0  0  0  0  0  0
  -17.2269   -8.4016    8.6452 C   0  0  0  0  0  0  0  0  0  0  0  0
  -18.3584   -7.6809    8.1745 C   0  0  0  0  0  0  0  0  0  0  0  0
  -18.7665   -7.8130    6.8181 C   0  0  0  0  0  0  0  0  0  0  0  0
  -18.0440   -8.6632    5.9375 C   0  0  0  0  0  0  0  0  0  0  0  0
  -16.9138   -9.3805    6.4101 C   0  0  0  0  0  0  0  0  0  0  0  0
  -16.5063   -9.2504    7.7639 C   0  0  0  0  0  0  0  0  0  0  0  0
  2  4  1  0  0  0  0
  3  5  1  0  0  0  0
  4  7  1  0  0  0  0
  6  1  1  0  0  0  0
  7 10  1  0  0  0  0
  8  6  1  0  0  0  0
  8 11  1  0  0  0  0
  9  6  1  0  0  0  0
 10 13  1  0  0  0  0
 11 14  1  0  0  0  0
 12  9  1  0  0  0  0
 14 12  1  0  0  0  0
 14 15  1  0  0  0  0
 15 16  1  0  0  0  0
 15 17  1  0  0  0  0
 18  2  1  0  0  0  0
 18 23  2  0  0  0  0
 19  1  1  0  0  0  0
 19 18  1  0  0  0  0
 20 19  2  0  0  0  0
 21  3  1  0  0  0  0
 21 20  1  0  0  0  0
 22 21  2  0  0  0  0
 22 23  1  0  0  0  0
M  END
>  <CHROM.1>
-163.26865522,-58.45757962,-154.09495080,176.17964277,95.45036512,154.51624742
-71.35071427,117.10632687,130.10797134,146.11905879,-128.94788085,-18.96838262
-7.56710020,9.23154011,2.35512658,-0.50361570,1.40240373

>  <Name>
1uui_lig

>  <RI>
0

>  <Rbt.Current_Directory>
/home/itssahil/PROJECTS/Mol_Feturizer/New_Systems/rnas/1uui

>  <Rbt.Executable>
rbdock ($Id: //depot/dev/client3/rdock/2013.1/src/exe/rbdock.cxx#4 $)

>  <Rbt.Library>
libRbt.so (2013.1, Build901 2013/11/27)

>  <Rbt.Parameter_File>
/export/apps/rDock/src/rDock_2013.1_src/data/scripts/dock_solv.prm

>  <Rbt.Receptor>
prm/blind_docking_80.prm

>  <SCORE>
-26.0266

>  <SCORE.INTER>
-24.1309

>  <SCORE.INTER.CONST>
1

>  <SCORE.INTER.POLAR>
-2.89392

>  <SCORE.INTER.ROT>
10

>  <SCORE.INTER.SOLV>
8.72325

>  <SCORE.INTER.VDW>
-19.6153

>  <SCORE.INTER.norm>
-1.04917

>  <SCORE.INTRA>
-2.40179

>  <SCORE.INTRA.DIHEDRAL>
-8.48765

>  <SCORE.INTRA.DIHEDRAL.0>
23.4151

>  <SCORE.INTRA.POLAR>
0

>  <SCORE.INTRA.POLAR.0>
0

>  <SCORE.INTRA.REPUL>
0

>  <SCORE.INTRA.REPUL.0>
0

>  <SCORE.INTRA.SOLV>
-0.0295497

>  <SCORE.INTRA.SOLV.lig_0>
-17.3568

>  <SCORE.INTRA.VDW>
1.85681

>  <SCORE.INTRA.VDW.0>
1.0768

>  <SCORE.INTRA.norm>
-0.104426

>  <SCORE.RESTR>
0.506136

>  <SCORE.RESTR.CAVITY>
0.506136

>  <SCORE.RESTR.norm>
0.0220059

>  <SCORE.SYSTEM>
0

>  <SCORE.SYSTEM.CONST>
0

>  <SCORE.SYSTEM.DIHEDRAL>
0

>  <SCORE.SYSTEM.SOLV>
0

>  <SCORE.SYSTEM.norm>
0

>  <SCORE.heavy>
23

>  <SCORE.norm>
-1.13159

>  <RMSD>
13.895

$$$$
1uui_lig
 OpenBabel11021811413D
libRbt.so/2013.1/901 2013/11/27
 23 24  0  0  0  0  0  0  0  0999 V2000
  -21.1130   -6.2553    7.4108 C   0  0  0  0  0  0  0  0  0  0  0  0
  -20.8904   -9.0818    6.7681 O   0  0  0  0  0  0  0  0  0  0  0  0
  -16.9787   -5.5416    4.6073 O   0  0  0  0  0  0  0  0  0  0  0  0
  -21.3407   -9.9878    5.7530 C   0  0  0  0  0  0  0  0  0  0  0  0
  -17.6154   -4.6050    3.7347 C   0  0  0  0  0  0  0  0  0  0  0  0
  -20.6535   -5.0255    8.1360 N   0  0  0  0  0  0  0  0  0  0  0  0
  -22.0206   -9.1915    4.6382 C   0  0  0  0  0  0  0  0  0  0  0  0
  -19.8764   -5.3771    9.3555 C   0  0  0  0  0  0  0  0  0  0  0  0
  -21.8084   -4.1689    8.5138 C   0  0  0  0  0  0  0  0  0  0  0  0
  -22.0073   -9.9978    3.3357 C   0  0  0  0  0  0  0  0  0  0  0  0
  -20.7147   -6.1892   10.3573 C   0  0  0  0  0  0  0  0  0  0  0  0
  -22.7940   -4.9165    9.4281 C   0  0  0  0  0  0  0  0  0  0  0  0
  -20.6252  -10.0651    2.8105 N   0  0  0  0  0  0  0  0  0  0  0  0
  -22.1770   -6.1323   10.0442 N   0  0  0  0  0  0  0  0  0  0  0  0
  -23.0214   -7.1307   10.5646 C   0  0  0  0  0  0  0  0  0  0  0  0
  -22.6952   -7.7911   11.7120 N   0  0  0  0  0  0  0  0  0  0  0  0
  -24.1129   -7.5534    9.8650 N   0  0  0  0  0  0  0  0  0  0  0  0
  -19.9078   -8.1922    6.2302 C   0  0  0  0  0  0  0  0  0  0  0  0
  -19.9758   -6.8012    6.5164 C   0  0  0  0  0  0  0  0  0  0  0  0
  -18.9990   -5.9197    5.9755 C   0  0  0  0  0  0  0  0  0  0  0  0
  -17.9589   -6.4297    5.1518 C   0  0  0  0  0  0  0  0  0  0  0  0
  -17.8930   -7.8193    4.8689 C   0  0  0  0  0  0  0  0  0  0  0  0
  -18.8679   -8.6999    5.4073 C   0  0  0  0  0  0  0  0  0  0  0  0
  2  4  1  0  0  0  0
  3  5  1  0  0  0  0
  4  7  1  0  0  0  0
  6  1  1  0  0  0  0
  7 10  1  0  0  0  0
  8  6  1  0  0  0  0
  8 11  1  0  0  0  0
  9  6  1  0  0  0  0
 10 13  1  0  0  0  0
 11 14  1  0  0  0  0
 12  9  1  0  0  0  0
 14 12  1  0  0  0  0
 14 15  1  0  0  0  0
 15 16  1  0  0  0  0
 15 17  1  0  0  0  0
 18  2  1  0  0  0  0
 18 23  2  0  0  0  0
 19  1  1  0  0  0  0
 19 18  1  0  0  0  0
 20 19  2  0  0  0  0
 21  3  1  0  0  0  0
 21 20  1  0  0  0  0
 22 21  2  0  0  0  0
 22 23  1  0  0  0  0
M  END
>  <CHROM.1>
-62.89885539,157.49098809,-82.25113446,-70.60126052,69.35319418,26.38187007
11.16967896,-88.56015697,134.93845297,151.19340605,-62.74935279,-20.64846116
-7.10101187,7.01382272,-2.23266507,-0.73179565,-2.30333979

>  <Name>
1uui_lig

>  <RI>
0

>  <Rbt.Current_Directory>
/home/itssahil/PROJECTS/Mol_Feturizer/New_Systems/rnas/1uui

>  <Rbt.Executable>
rbdock ($Id: //depot/dev/client3/rdock/2013.1/src/exe/rbdock.cxx#4 $)

>  <Rbt.Library>
libRbt.so (2013.1, Build901 2013/11/27)

>  <Rbt.Parameter_File>
/export/apps/rDock/src/rDock_2013.1_src/data/scripts/dock_solv.prm

>  <Rbt.Receptor>
prm/blind_docking_60.prm

>  <SCORE>
-22.1471

>  <SCORE.INTER>
-18.7427

>  <SCORE.INTER.CONST>
1

>  <SCORE.INTER.POLAR>
-2.97646

>  <SCORE.INTER.ROT>
10

>  <SCORE.INTER.SOLV>
6.65006

>  <SCORE.INTER.VDW>
-15.0569

>  <SCORE.INTER.norm>
-0.814899

>  <SCORE.INTRA>
-3.60034

>  <SCORE.INTRA.DIHEDRAL>
-9.45678

>  <SCORE.INTRA.DIHEDRAL.0>
23.4151

>  <SCORE.INTRA.POLAR>
0

>  <SCORE.INTRA.POLAR.0>
0

>  <SCORE.INTRA.REPUL>
0

>  <SCORE.INTRA.REPUL.0>
0

>  <SCORE.INTRA.SOLV>
0.278981

>  <SCORE.INTRA.SOLV.lig_0>
-17.3568

>  <SCORE.INTRA.VDW>
0.988565

>  <SCORE.INTRA.VDW.0>
1.0768

>  <SCORE.INTRA.norm>
-0.156536

>  <SCORE.RESTR>
0.195871

>  <SCORE.RESTR.CAVITY>
0.195871

>  <SCORE.RESTR.norm>
0.00851613

>  <SCORE.SYSTEM>
0

>  <SCORE.SYSTEM.CONST>
0

>  <SCORE.SYSTEM.DIHEDRAL>
0

>  <SCORE.SYSTEM.SOLV>
0

>  <SCORE.SYSTEM.norm>
0

>  <SCORE.heavy>
23

>  <SCORE.norm>
-0.962919

>  <RMSD>
13.910

$$$$
1uui_lig
 OpenBabel11021811413D
libRbt.so/2013.1/901 2013/11/27
 23 24  0  0  0  0  0  0  0  0999 V2000
  -19.7922   -7.5478    8.8723 C   0  0  0  0  0  0  0  0  0  0  0  0
  -17.6570   -9.4739    9.2997 O   0  0  0  0  0  0  0  0  0  0  0  0
  -18.7178   -7.8148    3.9493 O   0  0  0  0  0  0  0  0  0  0  0  0
  -16.8777   -8.4821    9.9802 C   0  0  0  0  0  0  0  0  0  0  0  0
  -19.9539   -8.3844    3.5114 C   0  0  0  0  0  0  0  0  0  0  0  0
  -19.5993   -6.0639    8.9740 N   0  0  0  0  0  0  0  0  0  0  0  0
  -16.3928   -9.0552   11.3127 C   0  0  0  0  0  0  0  0  0  0  0  0
  -19.0014   -5.6860   10.2833 C   0  0  0  0  0  0  0  0  0  0  0  0
  -20.8890   -5.3469    8.7924 C   0  0  0  0  0  0  0  0  0  0  0  0
  -16.1486   -7.9206   12.3128 C   0  0  0  0  0  0  0  0  0  0  0  0
  -19.8988   -6.0934   11.4643 C   0  0  0  0  0  0  0  0  0  0  0  0
  -21.9234   -5.7630    9.8522 C   0  0  0  0  0  0  0  0  0  0  0  0
  -15.4735   -8.4587   13.5150 N   0  0  0  0  0  0  0  0  0  0  0  0
  -21.2859   -6.4415   11.0234 N   0  0  0  0  0  0  0  0  0  0  0  0
  -22.0886   -7.2297   11.8690 C   0  0  0  0  0  0  0  0  0  0  0  0
  -22.5406   -6.7386   13.0579 N   0  0  0  0  0  0  0  0  0  0  0  0
  -22.3202   -8.5429   11.5836 N   0  0  0  0  0  0  0  0  0  0  0  0
  -17.9224   -9.0532    7.9585 C   0  0  0  0  0  0  0  0  0  0  0  0
  -18.9574   -8.1134    7.7000 C   0  0  0  0  0  0  0  0  0  0  0  0
  -19.2207   -7.7014    6.3640 C   0  0  0  0  0  0  0  0  0  0  0  0
  -18.4504   -8.2288    5.2922 C   0  0  0  0  0  0  0  0  0  0  0  0
  -17.4168   -9.1662    5.5536 C   0  0  0  0  0  0  0  0  0  0  0  0
  -17.1538   -9.5789    6.8864 C   0  0  0  0  0  0  0  0  0  0  0  0
  2  4  1  0  0  0  0
  3  5  1  0  0  0  0
  4  7  1  0  0  0  0
  6  1  1  0  0  0  0
  7 10  1  0  0  0  0
  8  6  1  0  0  0  0
  8 11  1  0  0  0  0
  9  6  1  0  0  0  0
 10 13  1  0  0  0  0
 11 14  1  0  0  0  0
 12  9  1  0  0  0  0
 14 12  1  0  0  0  0
 14 15  1  0  0  0  0
 15 16  1  0  0  0  0
 15 17  1  0  0  0  0
 18  2  1  0  0  0  0
 18 23  2  0  0  0  0
 19  1  1  0  0  0  0
 19 18  1  0  0  0  0
 20 19  2  0  0  0  0
 21  3  1  0  0  0  0
 21 20  1  0  0  0  0
 22 21  2  0  0  0  0
 22 23  1  0  0  0  0
M  END
>  <CHROM.1>
-169.82773530,-153.87395717,-118.56112863,-170.78291943,172.24290267,68.18880938
-111.75636683,-146.18092439,-79.61973438,117.57626158,-71.70244813,-19.12871968
-7.68467975,9.19647516,1.35914754,0.40795428,-1.65965981

>  <Name>
1uui_lig

>  <RI>
0

>  <Rbt.Current_Directory>
/home/itssahil/PROJECTS/Mol_Feturizer/New_Systems/rnas/1uui

>  <Rbt.Executable>
rbdock ($Id: //depot/dev/client3/rdock/2013.1/src/exe/rbdock.cxx#4 $)

>  <Rbt.Library>
libRbt.so (2013.1, Build901 2013/11/27)

>  <Rbt.Parameter_File>
/export/apps/rDock/src/rDock_2013.1_src/data/scripts/dock_solv.prm

>  <Rbt.Receptor>
prm/blind_docking_80.prm

>  <SCORE>
-28.9438

>  <SCORE.INTER>
-24.4058

>  <SCORE.INTER.CONST>
1

>  <SCORE.INTER.POLAR>
-3.22545

>  <SCORE.INTER.ROT>
10

>  <SCORE.INTER.SOLV>
7.45331

>  <SCORE.INTER.VDW>
-18.2702

>  <SCORE.INTER.norm>
-1.06112

>  <SCORE.INTRA>
-5.05391

>  <SCORE.INTRA.DIHEDRAL>
-3.29687

>  <SCORE.INTRA.DIHEDRAL.0>
23.4151

>  <SCORE.INTRA.POLAR>
0

>  <SCORE.INTRA.POLAR.0>
0

>  <SCORE.INTRA.REPUL>
0

>  <SCORE.INTRA.REPUL.0>
0

>  <SCORE.INTRA.SOLV>
-0.00592192

>  <SCORE.INTRA.SOLV.lig_0>
-17.3568

>  <SCORE.INTRA.VDW>
-3.40251

>  <SCORE.INTRA.VDW.0>
1.0768

>  <SCORE.INTRA.norm>
-0.219735

>  <SCORE.RESTR>
0.515946

>  <SCORE.RESTR.CAVITY>
0.515946

>  <SCORE.RESTR.norm>
0.0224324

>  <SCORE.SYSTEM>
0

>  <SCORE.SYSTEM.CONST>
0

>  <SCORE.SYSTEM.DIHEDRAL>
0

>  <SCORE.SYSTEM.SOLV>
0

>  <SCORE.SYSTEM.norm>
0

>  <SCORE.heavy>
23

>  <SCORE.norm>
-1.25843

>  <RMSD>
13.926

$$$$
1uui_lig
 OpenBabel11021811413D
libRbt.so/2013.1/901 2013/11/27
 23 24  0  0  0  0  0  0  0  0999 V2000
  -19.3498   -6.8013    6.4807 C   0  0  0  0  0  0  0  0  0  0  0  0
  -17.0897   -7.4705    8.1823 O   0  0  0  0  0  0  0  0  0  0  0  0
  -21.6970   -5.1893   10.6465 O   0  0  0  0  0  0  0  0  0  0  0  0
  -17.0484   -8.8826    8.4237 C   0  0  0  0  0  0  0  0  0  0  0  0
  -22.6343   -6.2223   10.9604 C   0  0  0  0  0  0  0  0  0  0  0  0
  -20.6934   -7.2719    6.0088 N   0  0  0  0  0  0  0  0  0  0  0  0
  -15.7356   -9.2313    9.1266 C   0  0  0  0  0  0  0  0  0  0  0  0
  -20.9317   -8.6911    6.3882 C   0  0  0  0  0  0  0  0  0  0  0  0
  -20.8202   -7.1247    4.5348 C   0  0  0  0  0  0  0  0  0  0  0  0
  -15.7281   -8.6461   10.5424 C   0  0  0  0  0  0  0  0  0  0  0  0
  -19.8917   -9.6360    5.7626 C   0  0  0  0  0  0  0  0  0  0  0  0
  -19.7465   -7.9356    3.7893 C   0  0  0  0  0  0  0  0  0  0  0  0
  -16.5352   -9.5061   11.4366 N   0  0  0  0  0  0  0  0  0  0  0  0
  -19.1200   -8.9756    4.6636 N   0  0  0  0  0  0  0  0  0  0  0  0
  -17.8766   -9.5171    4.2878 C   0  0  0  0  0  0  0  0  0  0  0  0
  -17.8057  -10.7077    3.6273 N   0  0  0  0  0  0  0  0  0  0  0  0
  -16.7124   -8.9333    4.6920 N   0  0  0  0  0  0  0  0  0  0  0  0
  -18.2483   -6.9016    8.7989 C   0  0  0  0  0  0  0  0  0  0  0  0
  -19.3780   -6.5573    8.0074 C   0  0  0  0  0  0  0  0  0  0  0  0
  -20.5262   -5.9876    8.6244 C   0  0  0  0  0  0  0  0  0  0  0  0
  -20.5423   -5.7639   10.0280 C   0  0  0  0  0  0  0  0  0  0  0  0
  -19.4132   -6.1100   10.8159 C   0  0  0  0  0  0  0  0  0  0  0  0
  -18.2662   -6.6776   10.2010 C   0  0  0  0  0  0  0  0  0  0  0  0
  2  4  1  0  0  0  0
  3  5  1  0  0  0  0
  4  7  1  0  0  0  0
  6  1  1  0  0  0  0
  7 10  1  0  0  0  0
  8  6  1  0  0  0  0
  8 11  1  0  0  0  0
  9  6  1  0  0  0  0
 10 13  1  0  0  0  0
 11 14  1  0  0  0  0
 12  9  1  0  0  0  0
 14 12  1  0  0  0  0
 14 15  1  0  0  0  0
 15 16  1  0  0  0  0
 15 17  1  0  0  0  0
 18  2  1  0  0  0  0
 18 23  2  0  0  0  0
 19  1  1  0  0  0  0
 19 18  1  0  0  0  0
 20 19  2  0  0  0  0
 21  3  1  0  0  0  0
 21 20  1  0  0  0  0
 22 21  2  0  0  0  0
 22 23  1  0  0  0  0
M  END
>  <CHROM.1>
-122.40743343,68.03136505,-74.84789371,78.80285837,-175.66023788,70.67172901
65.23565539,132.88672362,-103.06910240,141.77693967,86.05949435,-18.91866875
-7.82403696,7.64073090,1.39570187,0.51275786,-1.87617290

>  <Name>
1uui_lig

>  <RI>
0

>  <Rbt.Current_Directory>
/home/itssahil/PROJECTS/Mol_Feturizer/New_Systems/rnas/1uui

>  <Rbt.Executable>
rbdock ($Id: //depot/dev/client3/rdock/2013.1/src/exe/rbdock.cxx#4 $)

>  <Rbt.Library>
libRbt.so (2013.1, Build901 2013/11/27)

>  <Rbt.Parameter_File>
/export/apps/rDock/src/rDock_2013.1_src/data/scripts/dock_solv.prm

>  <Rbt.Receptor>
prm/blind_docking_80.prm

>  <SCORE>
-23.4357

>  <SCORE.INTER>
-20.9964

>  <SCORE.INTER.CONST>
1

>  <SCORE.INTER.POLAR>
-2.77062

>  <SCORE.INTER.ROT>
10

>  <SCORE.INTER.SOLV>
8.78222

>  <SCORE.INTER.VDW>
-17.9563

>  <SCORE.INTER.norm>
-0.912886

>  <SCORE.INTRA>
-3.75121

>  <SCORE.INTRA.DIHEDRAL>
-0.397571

>  <SCORE.INTRA.DIHEDRAL.0>
23.4151

>  <SCORE.INTRA.POLAR>
0

>  <SCORE.INTRA.POLAR.0>
0

>  <SCORE.INTRA.REPUL>
0

>  <SCORE.INTRA.REPUL.0>
0

>  <SCORE.INTRA.SOLV>
0.704785

>  <SCORE.INTRA.SOLV.lig_0>
-17.3568

>  <SCORE.INTRA.VDW>
-3.90482

>  <SCORE.INTRA.VDW.0>
1.0768

>  <SCORE.INTRA.norm>
-0.163096

>  <SCORE.RESTR>
1.31193

>  <SCORE.RESTR.CAVITY>
1.31193

>  <SCORE.RESTR.norm>
0.0570402

>  <SCORE.SYSTEM>
0

>  <SCORE.SYSTEM.CONST>
0

>  <SCORE.SYSTEM.DIHEDRAL>
0

>  <SCORE.SYSTEM.SOLV>
0

>  <SCORE.SYSTEM.norm>
0

>  <SCORE.heavy>
23

>  <SCORE.norm>
-1.01894

>  <RMSD>
13.927

$$$$
1uui_lig
 OpenBabel11021811413D
libRbt.so/2013.1/901 2013/11/27
 23 24  0  0  0  0  0  0  0  0999 V2000
  -20.5679   -5.8835    7.5549 C   0  0  0  0  0  0  0  0  0  0  0  0
  -19.0779   -8.3581    7.8828 O   0  0  0  0  0  0  0  0  0  0  0  0
  -23.4575   -8.3484    4.2328 O   0  0  0  0  0  0  0  0  0  0  0  0
  -17.8687   -7.9935    7.2055 C   0  0  0  0  0  0  0  0  0  0  0  0
  -22.9905   -8.0121    2.9241 C   0  0  0  0  0  0  0  0  0  0  0  0
  -20.5116   -6.1759    9.0249 N   0  0  0  0  0  0  0  0  0  0  0  0
  -17.4198   -9.1586    6.3222 C   0  0  0  0  0  0  0  0  0  0  0  0
  -21.8708   -6.4236    9.5781 C   0  0  0  0  0  0  0  0  0  0  0  0
  -19.8716   -5.0565    9.7650 C   0  0  0  0  0  0  0  0  0  0  0  0
  -17.9336   -8.9602    4.8926 C   0  0  0  0  0  0  0  0  0  0  0  0
  -22.7918   -5.2034    9.4087 C   0  0  0  0  0  0  0  0  0  0  0  0
  -20.6400   -3.7376    9.5743 C   0  0  0  0  0  0  0  0  0  0  0  0
  -17.8856  -10.2493    4.1671 N   0  0  0  0  0  0  0  0  0  0  0  0
  -22.0271   -3.9646    9.0619 N   0  0  0  0  0  0  0  0  0  0  0  0
  -22.7105   -2.8923    8.4589 C   0  0  0  0  0  0  0  0  0  0  0  0
  -23.5366   -3.1023    7.3947 N   0  0  0  0  0  0  0  0  0  0  0  0
  -22.4595   -1.6063    8.8367 N   0  0  0  0  0  0  0  0  0  0  0  0
  -20.1748   -8.3522    6.9647 C   0  0  0  0  0  0  0  0  0  0  0  0
  -20.9335   -7.1655    6.7714 C   0  0  0  0  0  0  0  0  0  0  0  0
  -22.0263   -7.1657    5.8606 C   0  0  0  0  0  0  0  0  0  0  0  0
  -22.3572   -8.3495    5.1469 C   0  0  0  0  0  0  0  0  0  0  0  0
  -21.5969   -9.5325    5.3411 C   0  0  0  0  0  0  0  0  0  0  0  0
  -20.5068   -9.5338    6.2507 C   0  0  0  0  0  0  0  0  0  0  0  0
  2  4  1  0  0  0  0
  3  5  1  0  0  0  0
  4  7  1  0  0  0  0
  6  1  1  0  0  0  0
  7 10  1  0  0  0  0
  8  6  1  0  0  0  0
  8 11  1  0  0  0  0
  9  6  1  0  0  0  0
 10 13  1  0  0  0  0
 11 14  1  0  0  0  0
 12  9  1  0  0  0  0
 14 12  1  0  0  0  0
 14 15  1  0  0  0  0
 15 16  1  0  0  0  0
 15 17  1  0  0  0  0
 18  2  1  0  0  0  0
 18 23  2  0  0  0  0
 19  1  1  0  0  0  0
 19 18  1  0  0  0  0
 20 19  2  0  0  0  0
 21  3  1  0  0  0  0
 21 20  1  0  0  0  0
 22 21  2  0  0  0  0
 22 23  1  0  0  0  0
M  END
>  <CHROM.1>
-73.34408506,95.12158056,-70.63214114,-161.90571545,-50.75795571,-48.12684309
172.51686318,27.57048099,-90.17078943,-53.30669186,91.47840763,-20.91449976
-6.72308091,7.05631402,-1.98303201,0.48953190,-2.35412393

>  <Name>
1uui_lig

>  <RI>
0

>  <Rbt.Current_Directory>
/home/itssahil/PROJECTS/Mol_Feturizer/New_Systems/rnas/1uui

>  <Rbt.Executable>
rbdock ($Id: //depot/dev/client3/rdock/2013.1/src/exe/rbdock.cxx#4 $)

>  <Rbt.Library>
libRbt.so (2013.1, Build901 2013/11/27)

>  <Rbt.Parameter_File>
/export/apps/rDock/src/rDock_2013.1_src/data/scripts/dock_solv.prm

>  <Rbt.Receptor>
prm/blind_docking_60.prm

>  <SCORE>
-26.5866

>  <SCORE.INTER>
-20.6363

>  <SCORE.INTER.CONST>
1

>  <SCORE.INTER.POLAR>
-2.47981

>  <SCORE.INTER.ROT>
10

>  <SCORE.INTER.SOLV>
7.65942

>  <SCORE.INTER.VDW>
-18.3113

>  <SCORE.INTER.norm>
-0.897228

>  <SCORE.INTRA>
-5.95559

>  <SCORE.INTRA.DIHEDRAL>
-3.39764

>  <SCORE.INTRA.DIHEDRAL.0>
23.4151

>  <SCORE.INTRA.POLAR>
-0.650762

>  <SCORE.INTRA.POLAR.0>
0

>  <SCORE.INTRA.REPUL>
0

>  <SCORE.INTRA.REPUL.0>
0

>  <SCORE.INTRA.SOLV>
0.576001

>  <SCORE.INTRA.SOLV.lig_0>
-17.3568

>  <SCORE.INTRA.VDW>
-2.33218

>  <SCORE.INTRA.VDW.0>
1.0768

>  <SCORE.INTRA.norm>
-0.258939

>  <SCORE.RESTR>
0.00526294

>  <SCORE.RESTR.CAVITY>
0.00526294

>  <SCORE.RESTR.norm>
0.000228823

>  <SCORE.SYSTEM>
0

>  <SCORE.SYSTEM.CONST>
0

>  <SCORE.SYSTEM.DIHEDRAL>
0

>  <SCORE.SYSTEM.SOLV>
0

>  <SCORE.SYSTEM.norm>
0

>  <SCORE.heavy>
23

>  <SCORE.norm>
-1.15594

>  <RMSD>
13.940

$$$$
1uui_lig
 OpenBabel11021811413D
libRbt.so/2013.1/901 2013/11/27
 23 24  0  0  0  0  0  0  0  0999 V2000
  -19.5092   -6.5198    8.6812 C   0  0  0  0  0  0  0  0  0  0  0  0
  -18.0817   -7.4760    6.3361 O   0  0  0  0  0  0  0  0  0  0  0  0
  -16.5173   -9.5176   11.4242 O   0  0  0  0  0  0  0  0  0  0  0  0
  -17.9526   -8.4953    5.3370 C   0  0  0  0  0  0  0  0  0  0  0  0
  -16.0664   -8.4413   12.2502 C   0  0  0  0  0  0  0  0  0  0  0  0
  -20.7294   -7.1652    8.0948 N   0  0  0  0  0  0  0  0  0  0  0  0
  -19.1796   -9.4067    5.3913 C   0  0  0  0  0  0  0  0  0  0  0  0
  -21.0954   -6.5440    6.7929 C   0  0  0  0  0  0  0  0  0  0  0  0
  -21.8814   -7.0714    9.0301 C   0  0  0  0  0  0  0  0  0  0  0  0
  -19.2169  -10.3091    4.1538 C   0  0  0  0  0  0  0  0  0  0  0  0
  -21.4189   -5.0475    6.9405 C   0  0  0  0  0  0  0  0  0  0  0  0
  -22.2300   -5.6090    9.3557 C   0  0  0  0  0  0  0  0  0  0  0  0
  -18.3379  -11.4801    4.3697 N   0  0  0  0  0  0  0  0  0  0  0  0
  -21.6331   -4.6560    8.3690 N   0  0  0  0  0  0  0  0  0  0  0  0
  -21.5069   -3.3009    8.7270 C   0  0  0  0  0  0  0  0  0  0  0  0
  -21.5049   -2.3254    7.7744 N   0  0  0  0  0  0  0  0  0  0  0  0
  -21.2494   -2.9429   10.0174 N   0  0  0  0  0  0  0  0  0  0  0  0
  -17.6935   -7.9897    7.6134 C   0  0  0  0  0  0  0  0  0  0  0  0
  -18.3620   -7.5511    8.7890 C   0  0  0  0  0  0  0  0  0  0  0  0
  -17.9695   -8.0615   10.0575 C   0  0  0  0  0  0  0  0  0  0  0  0
  -16.9119   -9.0069   10.1476 C   0  0  0  0  0  0  0  0  0  0  0  0
  -16.2471   -9.4439    8.9718 C   0  0  0  0  0  0  0  0  0  0  0  0
  -16.6373   -8.9344    7.7054 C   0  0  0  0  0  0  0  0  0  0  0  0
  2  4  1  0  0  0  0
  3  5  1  0  0  0  0
  4  7  1  0  0  0  0
  6  1  1  0  0  0  0
  7 10  1  0  0  0  0
  8  6  1  0  0  0  0
  8 11  1  0  0  0  0
  9  6  1  0  0  0  0
 10 13  1  0  0  0  0
 11 14  1  0  0  0  0
 12  9  1  0  0  0  0
 14 12  1  0  0  0  0
 14 15  1  0  0  0  0
 15 16  1  0  0  0  0
 15 17  1  0  0  0  0
 18  2  1  0  0  0  0
 18 23  2  0  0  0  0
 19  1  1  0  0  0  0
 19 18  1  0  0  0  0
 20 19  2  0  0  0  0
 21  3  1  0  0  0  0
 21 20  1  0  0  0  0
 22 21  2  0  0  0  0
 22 23  1  0  0  0  0
M  END
>  <CHROM.1>
80.92741864,167.81131631,-116.98853331,82.61693010,-174.69824453,15.29656497
143.07176428,31.20817527,-145.05294840,72.55433995,-60.98446158,-19.24418048
-7.25767721,8.07623078,-2.56803345,0.80077079,-2.10318595

>  <Name>
1uui_lig

>  <RI>
0

>  <Rbt.Current_Directory>
/home/itssahil/PROJECTS/Mol_Feturizer/New_Systems/rnas/1uui

>  <Rbt.Executable>
rbdock ($Id: //depot/dev/client3/rdock/2013.1/src/exe/rbdock.cxx#4 $)

>  <Rbt.Library>
libRbt.so (2013.1, Build901 2013/11/27)

>  <Rbt.Parameter_File>
/export/apps/rDock/src/rDock_2013.1_src/data/scripts/dock_solv.prm

>  <Rbt.Receptor>
prm/blind_docking_100.prm

>  <SCORE>
-20.2641

>  <SCORE.INTER>
-17.9881

>  <SCORE.INTER.CONST>
1

>  <SCORE.INTER.POLAR>
-2.11948

>  <SCORE.INTER.ROT>
10

>  <SCORE.INTER.SOLV>
5.08946

>  <SCORE.INTER.VDW>
-16.8903

>  <SCORE.INTER.norm>
-0.78209

>  <SCORE.INTRA>
-2.74157

>  <SCORE.INTRA.DIHEDRAL>
-6.06476

>  <SCORE.INTRA.DIHEDRAL.0>
23.4151

>  <SCORE.INTRA.POLAR>
0

>  <SCORE.INTRA.POLAR.0>
0

>  <SCORE.INTRA.REPUL>
0

>  <SCORE.INTRA.REPUL.0>
0

>  <SCORE.INTRA.SOLV>
0.260242

>  <SCORE.INTRA.SOLV.lig_0>
-17.3568

>  <SCORE.INTRA.VDW>
0.160691

>  <SCORE.INTRA.VDW.0>
1.0768

>  <SCORE.INTRA.norm>
-0.119199

>  <SCORE.RESTR>
0.465564

>  <SCORE.RESTR.CAVITY>
0.465564

>  <SCORE.RESTR.norm>
0.0202419

>  <SCORE.SYSTEM>
0

>  <SCORE.SYSTEM.CONST>
0

>  <SCORE.SYSTEM.DIHEDRAL>
0

>  <SCORE.SYSTEM.SOLV>
0

>  <SCORE.SYSTEM.norm>
0

>  <SCORE.heavy>
23

>  <SCORE.norm>
-0.881047

>  <RMSD>
13.954

$$$$
1uui_lig
 OpenBabel11021811413D
libRbt.so/2013.1/901 2013/11/27
 23 24  0  0  0  0  0  0  0  0999 V2000
  -20.2384   -5.5982    6.6190 C   0  0  0  0  0  0  0  0  0  0  0  0
  -21.2744   -7.9318    8.0091 O   0  0  0  0  0  0  0  0  0  0  0  0
  -20.3217   -8.3731    2.4054 O   0  0  0  0  0  0  0  0  0  0  0  0
  -22.2113   -6.8778    8.2644 C   0  0  0  0  0  0  0  0  0  0  0  0
  -21.5673   -8.5402    1.7236 C   0  0  0  0  0  0  0  0  0  0  0  0
  -18.8548   -5.6179    7.1974 N   0  0  0  0  0  0  0  0  0  0  0  0
  -23.1600   -7.3124    9.3825 C   0  0  0  0  0  0  0  0  0  0  0  0
  -18.8884   -5.8356    8.6692 C   0  0  0  0  0  0  0  0  0  0  0  0
  -18.1366   -4.3506    6.9000 C   0  0  0  0  0  0  0  0  0  0  0  0
  -22.6162   -6.8527   10.7390 C   0  0  0  0  0  0  0  0  0  0  0  0
  -19.6526   -4.7177    9.3986 C   0  0  0  0  0  0  0  0  0  0  0  0
  -18.8740   -3.1313    7.4794 C   0  0  0  0  0  0  0  0  0  0  0  0
  -23.6249   -7.1143   11.7899 N   0  0  0  0  0  0  0  0  0  0  0  0
  -19.8697   -3.5218    8.5255 N   0  0  0  0  0  0  0  0  0  0  0  0
  -20.8918   -2.6142    8.8603 C   0  0  0  0  0  0  0  0  0  0  0  0
  -22.1681   -2.8090    8.4221 N   0  0  0  0  0  0  0  0  0  0  0  0
  -20.6046   -1.4528    9.5146 N   0  0  0  0  0  0  0  0  0  0  0  0
  -21.0309   -8.0414    6.6037 C   0  0  0  0  0  0  0  0  0  0  0  0
  -20.5252   -6.9265    5.8810 C   0  0  0  0  0  0  0  0  0  0  0  0
  -20.2889   -7.0388    4.4826 C   0  0  0  0  0  0  0  0  0  0  0  0
  -20.5582   -8.2626    3.8118 C   0  0  0  0  0  0  0  0  0  0  0  0
  -21.0620   -9.3745    4.5365 C   0  0  0  0  0  0  0  0  0  0  0  0
  -21.2992   -9.2633    5.9318 C   0  0  0  0  0  0  0  0  0  0  0  0
  2  4  1  0  0  0  0
  3  5  1  0  0  0  0
  4  7  1  0  0  0  0
  6  1  1  0  0  0  0
  7 10  1  0  0  0  0
  8  6  1  0  0  0  0
  8 11  1  0  0  0  0
  9  6  1  0  0  0  0
 10 13  1  0  0  0  0
 11 14  1  0  0  0  0
 12  9  1  0  0  0  0
 14 12  1  0  0  0  0
 14 15  1  0  0  0  0
 15 16  1  0  0  0  0
 15 17  1  0  0  0  0
 18  2  1  0  0  0  0
 18 23  2  0  0  0  0
 19  1  1  0  0  0  0
 19 18  1  0  0  0  0
 20 19  2  0  0  0  0
 21  3  1  0  0  0  0
 21 20  1  0  0  0  0
 22 21  2  0  0  0  0
 22 23  1  0  0  0  0
M  END
>  <CHROM.1>
141.00509556,92.23522723,-104.38969621,172.38072999,-46.80227745,-87.16335223
-174.26922717,-155.59218237,58.52169859,86.54845911,-113.37401280,-20.80392889
-6.10423306,7.25309284,-1.51826605,0.93447635,0.87192476

>  <Name>
1uui_lig

>  <RI>
0

>  <Rbt.Current_Directory>
/home/itssahil/PROJECTS/Mol_Feturizer/New_Systems/rnas/1uui

>  <Rbt.Executable>
rbdock ($Id: //depot/dev/client3/rdock/2013.1/src/exe/rbdock.cxx#4 $)

>  <Rbt.Library>
libRbt.so (2013.1, Build901 2013/11/27)

>  <Rbt.Parameter_File>
/export/apps/rDock/src/rDock_2013.1_src/data/scripts/dock_solv.prm

>  <Rbt.Receptor>
prm/blind_docking_60.prm

>  <SCORE>
-25.2802

>  <SCORE.INTER>
-25.504

>  <SCORE.INTER.CONST>
1

>  <SCORE.INTER.POLAR>
-5.08442

>  <SCORE.INTER.ROT>
10

>  <SCORE.INTER.SOLV>
8.1538

>  <SCORE.INTER.VDW>
-13.0392

>  <SCORE.INTER.norm>
-1.10887

>  <SCORE.INTRA>
-1.38639

>  <SCORE.INTRA.DIHEDRAL>
0.391795

>  <SCORE.INTRA.DIHEDRAL.0>
23.4151

>  <SCORE.INTRA.POLAR>
0

>  <SCORE.INTRA.POLAR.0>
0

>  <SCORE.INTRA.REPUL>
0

>  <SCORE.INTRA.REPUL.0>
0

>  <SCORE.INTRA.SOLV>
0.386656

>  <SCORE.INTRA.SOLV.lig_0>
-17.3568

>  <SCORE.INTRA.VDW>
-1.77561

>  <SCORE.INTRA.VDW.0>
1.0768

>  <SCORE.INTRA.norm>
-0.0602777

>  <SCORE.RESTR>
1.61026

>  <SCORE.RESTR.CAVITY>
1.61026

>  <SCORE.RESTR.norm>
0.0700112

>  <SCORE.SYSTEM>
0

>  <SCORE.SYSTEM.CONST>
0

>  <SCORE.SYSTEM.DIHEDRAL>
0

>  <SCORE.SYSTEM.SOLV>
0

>  <SCORE.SYSTEM.norm>
0

>  <SCORE.heavy>
23

>  <SCORE.norm>
-1.09914

>  <RMSD>
13.967

$$$$
1uui_lig
 OpenBabel11021811413D
libRbt.so/2013.1/901 2013/11/27
 23 24  0  0  0  0  0  0  0  0999 V2000
  -18.4150   -7.2519    8.2627 C   0  0  0  0  0  0  0  0  0  0  0  0
  -17.9663   -6.2063   10.9379 O   0  0  0  0  0  0  0  0  0  0  0  0
  -22.1492   -3.8850    7.8366 O   0  0  0  0  0  0  0  0  0  0  0  0
  -18.5182   -6.9825   12.0089 C   0  0  0  0  0  0  0  0  0  0  0  0
  -21.9306   -2.4767    7.7226 C   0  0  0  0  0  0  0  0  0  0  0  0
  -18.9074   -8.5747    8.7698 N   0  0  0  0  0  0  0  0  0  0  0  0
  -17.6703   -8.2405   12.2030 C   0  0  0  0  0  0  0  0  0  0  0  0
  -17.8454   -9.6139    8.6856 C   0  0  0  0  0  0  0  0  0  0  0  0
  -20.1024   -9.0242    8.0081 C   0  0  0  0  0  0  0  0  0  0  0  0
  -16.2413   -7.8533   12.5968 C   0  0  0  0  0  0  0  0  0  0  0  0
  -17.3805   -9.8450    7.2377 C   0  0  0  0  0  0  0  0  0  0  0  0
  -19.7948   -9.1773    6.5087 C   0  0  0  0  0  0  0  0  0  0  0  0
  -15.4739   -9.0733   12.9331 N   0  0  0  0  0  0  0  0  0  0  0  0
  -18.3246   -9.2489    6.2413 N   0  0  0  0  0  0  0  0  0  0  0  0
  -17.8592   -8.9849    4.9397 C   0  0  0  0  0  0  0  0  0  0  0  0
  -18.7243   -8.6228    3.9500 N   0  0  0  0  0  0  0  0  0  0  0  0
  -16.5571   -9.2148    4.6061 N   0  0  0  0  0  0  0  0  0  0  0  0
  -19.0178   -5.6281   10.1594 C   0  0  0  0  0  0  0  0  0  0  0  0
  -19.2744   -6.1059    8.8452 C   0  0  0  0  0  0  0  0  0  0  0  0
  -20.3182   -5.5246    8.0730 C   0  0  0  0  0  0  0  0  0  0  0  0
  -21.1013   -4.4695    8.6152 C   0  0  0  0  0  0  0  0  0  0  0  0
  -20.8434   -3.9955    9.9282 C   0  0  0  0  0  0  0  0  0  0  0  0
  -19.8012   -4.5740   10.6994 C   0  0  0  0  0  0  0  0  0  0  0  0
  2  4  1  0  0  0  0
  3  5  1  0  0  0  0
  4  7  1  0  0  0  0
  6  1  1  0  0  0  0
  7 10  1  0  0  0  0
  8  6  1  0  0  0  0
  8 11  1  0  0  0  0
  9  6  1  0  0  0  0
 10 13  1  0  0  0  0
 11 14  1  0  0  0  0
 12  9  1  0  0  0  0
 14 12  1  0  0  0  0
 14 15  1  0  0  0  0
 15 16  1  0  0  0  0
 15 17  1  0  0  0  0
 18  2  1  0  0  0  0
 18 23  2  0  0  0  0
 19  1  1  0  0  0  0
 19 18  1  0  0  0  0
 20 19  2  0  0  0  0
 21  3  1  0  0  0  0
 21 20  1  0  0  0  0
 22 21  2  0  0  0  0
 22 23  1  0  0  0  0
M  END
>  <CHROM.1>
141.73437114,62.09388152,-157.88248957,173.53229220,157.79146394,170.63063649
102.89451562,29.25734748,-109.22948945,80.97878526,-123.41979057,-18.82712964
-7.21056584,8.67127489,1.08750907,0.87570186,-1.96328686

>  <Name>
1uui_lig

>  <RI>
0

>  <Rbt.Current_Directory>
/home/itssahil/PROJECTS/Mol_Feturizer/New_Systems/rnas/1uui

>  <Rbt.Executable>
rbdock ($Id: //depot/dev/client3/rdock/2013.1/src/exe/rbdock.cxx#4 $)

>  <Rbt.Library>
libRbt.so (2013.1, Build901 2013/11/27)

>  <Rbt.Parameter_File>
/export/apps/rDock/src/rDock_2013.1_src/data/scripts/dock_solv.prm

>  <Rbt.Receptor>
prm/blind_docking_80.prm

>  <SCORE>
-23.1784

>  <SCORE.INTER>
-20.6119

>  <SCORE.INTER.CONST>
1

>  <SCORE.INTER.POLAR>
-2.26637

>  <SCORE.INTER.ROT>
10

>  <SCORE.INTER.SOLV>
9.21141

>  <SCORE.INTER.VDW>
-19.5238

>  <SCORE.INTER.norm>
-0.89617

>  <SCORE.INTRA>
-3.12657

>  <SCORE.INTRA.DIHEDRAL>
-4.12482

>  <SCORE.INTRA.DIHEDRAL.0>
23.4151

>  <SCORE.INTRA.POLAR>
0

>  <SCORE.INTRA.POLAR.0>
0

>  <SCORE.INTRA.REPUL>
0

>  <SCORE.INTRA.REPUL.0>
0

>  <SCORE.INTRA.SOLV>
0.186762

>  <SCORE.INTRA.SOLV.lig_0>
-17.3568

>  <SCORE.INTRA.VDW>
-1.15754

>  <SCORE.INTRA.VDW.0>
1.0768

>  <SCORE.INTRA.norm>
-0.135938

>  <SCORE.RESTR>
0.56009

>  <SCORE.RESTR.CAVITY>
0.56009

>  <SCORE.RESTR.norm>
0.0243517

>  <SCORE.SYSTEM>
0

>  <SCORE.SYSTEM.CONST>
0

>  <SCORE.SYSTEM.DIHEDRAL>
0

>  <SCORE.SYSTEM.SOLV>
0

>  <SCORE.SYSTEM.norm>
0

>  <SCORE.heavy>
23

>  <SCORE.norm>
-1.00776

>  <RMSD>
13.969

$$$$
1uui_lig
 OpenBabel11021811413D
libRbt.so/2013.1/901 2013/11/27
 23 24  0  0  0  0  0  0  0  0999 V2000
  -20.0134   -7.5946    8.7895 C   0  0  0  0  0  0  0  0  0  0  0  0
  -17.5833   -9.1070    9.2984 O   0  0  0  0  0  0  0  0  0  0  0  0
  -18.9105   -7.9412    3.8777 O   0  0  0  0  0  0  0  0  0  0  0  0
  -16.2227   -9.5490    9.3852 C   0  0  0  0  0  0  0  0  0  0  0  0
  -20.1209   -8.6174    3.5287 C   0  0  0  0  0  0  0  0  0  0  0  0
  -19.4851   -6.3184    9.3739 N   0  0  0  0  0  0  0  0  0  0  0  0
  -15.5207   -8.7878   10.5107 C   0  0  0  0  0  0  0  0  0  0  0  0
  -19.3202   -6.4281   10.8489 C   0  0  0  0  0  0  0  0  0  0  0  0
  -20.3849   -5.1775    9.0592 C   0  0  0  0  0  0  0  0  0  0  0  0
  -16.2653   -9.0029   11.8322 C   0  0  0  0  0  0  0  0  0  0  0  0
  -20.6551   -6.7150   11.5570 C   0  0  0  0  0  0  0  0  0  0  0  0
  -21.8013   -5.4019    9.6158 C   0  0  0  0  0  0  0  0  0  0  0  0
  -15.4702   -8.4371   12.9449 N   0  0  0  0  0  0  0  0  0  0  0  0
  -21.8305   -6.4691   10.6639 N   0  0  0  0  0  0  0  0  0  0  0  0
  -23.0608   -7.0749   10.9798 C   0  0  0  0  0  0  0  0  0  0  0  0
  -23.3401   -7.4611   12.2572 N   0  0  0  0  0  0  0  0  0  0  0  0
  -23.9440   -7.4109    9.9966 N   0  0  0  0  0  0  0  0  0  0  0  0
  -17.9163   -8.8100    7.9393 C   0  0  0  0  0  0  0  0  0  0  0  0
  -19.0953   -8.0736    7.6411 C   0  0  0  0  0  0  0  0  0  0  0  0
  -19.4247   -7.7845    6.2876 C   0  0  0  0  0  0  0  0  0  0  0  0
  -18.5767   -8.2313    5.2381 C   0  0  0  0  0  0  0  0  0  0  0  0
  -17.3995   -8.9653    5.5392 C   0  0  0  0  0  0  0  0  0  0  0  0
  -17.0703   -9.2554    6.8894 C   0  0  0  0  0  0  0  0  0  0  0  0
  2  4  1  0  0  0  0
  3  5  1  0  0  0  0
  4  7  1  0  0  0  0
  6  1  1  0  0  0  0
  7 10  1  0  0  0  0
  8  6  1  0  0  0  0
  8 11  1  0  0  0  0
  9  6  1  0  0  0  0
 10 13  1  0  0  0  0
 11 14  1  0  0  0  0
 12  9  1  0  0  0  0
 14 12  1  0  0  0  0
 14 15  1  0  0  0  0
 15 16  1  0  0  0  0
 15 17  1  0  0  0  0
 18  2  1  0  0  0  0
 18 23  2  0  0  0  0
 19  1  1  0  0  0  0
 19 18  1  0  0  0  0
 20 19  2  0  0  0  0
 21  3  1  0  0  0  0
 21 20  1  0  0  0  0
 22 21  2  0  0  0  0
 22 23  1  0  0  0  0
M  END
>  <CHROM.1>
131.70854399,57.47645553,-126.68398209,171.46434461,-173.00921001,23.36649138
63.17266180,69.70645914,-165.69500900,82.67131749,-65.17533898,-19.30012328
-7.75775947,8.94997043,2.25110393,-0.33629988,1.47417608

>  <Name>
1uui_lig

>  <RI>
0

>  <Rbt.Current_Directory>
/home/itssahil/PROJECTS/Mol_Feturizer/New_Systems/rnas/1uui

>  <Rbt.Executable>
rbdock ($Id: //depot/dev/client3/rdock/2013.1/src/exe/rbdock.cxx#4 $)

>  <Rbt.Library>
libRbt.so (2013.1, Build901 2013/11/27)

>  <Rbt.Parameter_File>
/export/apps/rDock/src/rDock_2013.1_src/data/scripts/dock_solv.prm

>  <Rbt.Receptor>
prm/blind_docking_80.prm

>  <SCORE>
-35.1359

>  <SCORE.INTER>
-34.463

>  <SCORE.INTER.CONST>
1

>  <SCORE.INTER.POLAR>
-3.96774

>  <SCORE.INTER.ROT>
10

>  <SCORE.INTER.SOLV>
9.61885

>  <SCORE.INTER.VDW>
-23.2225

>  <SCORE.INTER.norm>
-1.49839

>  <SCORE.INTRA>
-0.693861

>  <SCORE.INTRA.DIHEDRAL>
-4.53755

>  <SCORE.INTRA.DIHEDRAL.0>
23.4151

>  <SCORE.INTRA.POLAR>
0

>  <SCORE.INTRA.POLAR.0>
0

>  <SCORE.INTRA.REPUL>
0

>  <SCORE.INTRA.REPUL.0>
0

>  <SCORE.INTRA.SOLV>
0.110723

>  <SCORE.INTRA.SOLV.lig_0>
-17.3568

>  <SCORE.INTRA.VDW>
1.51955

>  <SCORE.INTRA.VDW.0>
1.0768

>  <SCORE.INTRA.norm>
-0.0301679

>  <SCORE.RESTR>
0.0209487

>  <SCORE.RESTR.CAVITY>
0.0209487

>  <SCORE.RESTR.norm>
0.000910814

>  <SCORE.SYSTEM>
0

>  <SCORE.SYSTEM.CONST>
0

>  <SCORE.SYSTEM.DIHEDRAL>
0

>  <SCORE.SYSTEM.SOLV>
0

>  <SCORE.SYSTEM.norm>
0

>  <SCORE.heavy>
23

>  <SCORE.norm>
-1.52765

>  <RMSD>
13.973

$$$$
1uui_lig
 OpenBabel11021811413D
libRbt.so/2013.1/901 2013/11/27
 23 24  0  0  0  0  0  0  0  0999 V2000
  -19.3381   -6.9511    9.2393 C   0  0  0  0  0  0  0  0  0  0  0  0
  -16.6177   -7.8645    8.7744 O   0  0  0  0  0  0  0  0  0  0  0  0
  -20.4988   -8.8814    4.7239 O   0  0  0  0  0  0  0  0  0  0  0  0
  -16.3080   -9.0798    9.4680 C   0  0  0  0  0  0  0  0  0  0  0  0
  -21.5585   -9.6717    5.2684 C   0  0  0  0  0  0  0  0  0  0  0  0
  -19.6782   -5.5219    8.9373 N   0  0  0  0  0  0  0  0  0  0  0  0
  -15.2910   -8.7809   10.5705 C   0  0  0  0  0  0  0  0  0  0  0  0
  -19.5954   -4.6777   10.1601 C   0  0  0  0  0  0  0  0  0  0  0  0
  -21.0398   -5.4124    8.3504 C   0  0  0  0  0  0  0  0  0  0  0  0
  -16.0180   -8.4021   11.8648 C   0  0  0  0  0  0  0  0  0  0  0  0
  -20.5795   -5.1422   11.2472 C   0  0  0  0  0  0  0  0  0  0  0  0
  -22.1143   -5.9629    9.3037 C   0  0  0  0  0  0  0  0  0  0  0  0
  -16.6089   -9.6153   12.4725 N   0  0  0  0  0  0  0  0  0  0  0  0
  -21.6119   -6.0819   10.7079 N   0  0  0  0  0  0  0  0  0  0  0  0
  -22.2982   -6.9223   11.6040 C   0  0  0  0  0  0  0  0  0  0  0  0
  -22.4546   -6.5680   12.9113 N   0  0  0  0  0  0  0  0  0  0  0  0
  -22.7035   -8.1664   11.2199 N   0  0  0  0  0  0  0  0  0  0  0  0
  -17.5923   -8.1151    7.7578 C   0  0  0  0  0  0  0  0  0  0  0  0
  -18.9359   -7.6878    7.9406 C   0  0  0  0  0  0  0  0  0  0  0  0
  -19.9028   -7.9432    6.9287 C   0  0  0  0  0  0  0  0  0  0  0  0
  -19.5249   -8.6237    5.7394 C   0  0  0  0  0  0  0  0  0  0  0  0
  -18.1822   -9.0481    5.5593 C   0  0  0  0  0  0  0  0  0  0  0  0
  -17.2167   -8.7947    6.5689 C   0  0  0  0  0  0  0  0  0  0  0  0
  2  4  1  0  0  0  0
  3  5  1  0  0  0  0
  4  7  1  0  0  0  0
  6  1  1  0  0  0  0
  7 10  1  0  0  0  0
  8  6  1  0  0  0  0
  8 11  1  0  0  0  0
  9  6  1  0  0  0  0
 10 13  1  0  0  0  0
 11 14  1  0  0  0  0
 12  9  1  0  0  0  0
 14 12  1  0  0  0  0
 14 15  1  0  0  0  0
 15 16  1  0  0  0  0
 15 17  1  0  0  0  0
 18  2  1  0  0  0  0
 18 23  2  0  0  0  0
 19  1  1  0  0  0  0
 19 18  1  0  0  0  0
 20 19  2  0  0  0  0
 21  3  1  0  0  0  0
 21 20  1  0  0  0  0
 22 21  2  0  0  0  0
 22 23  1  0  0  0  0
M  END
>  <CHROM.1>
-178.63351463,89.02913436,-159.78161884,74.02779781,-77.40559174,26.14906743
70.29422226,12.50309508,106.09975410,111.90109358,-59.24083046,-19.40127461
-7.57340239,9.09642515,-2.19143939,0.37284792,-1.82325752

>  <Name>
1uui_lig

>  <RI>
0

>  <Rbt.Current_Directory>
/home/itssahil/PROJECTS/Mol_Feturizer/New_Systems/rnas/1uui

>  <Rbt.Executable>
rbdock ($Id: //depot/dev/client3/rdock/2013.1/src/exe/rbdock.cxx#4 $)

>  <Rbt.Library>
libRbt.so (2013.1, Build901 2013/11/27)

>  <Rbt.Parameter_File>
/export/apps/rDock/src/rDock_2013.1_src/data/scripts/dock_solv.prm

>  <Rbt.Receptor>
prm/blind_docking_100.prm

>  <SCORE>
-22.7294

>  <SCORE.INTER>
-18.4227

>  <SCORE.INTER.CONST>
1

>  <SCORE.INTER.POLAR>
-2.72954

>  <SCORE.INTER.ROT>
10

>  <SCORE.INTER.SOLV>
7.41249

>  <SCORE.INTER.VDW>
-15.9209

>  <SCORE.INTER.norm>
-0.800989

>  <SCORE.INTRA>
-4.76766

>  <SCORE.INTRA.DIHEDRAL>
-6.35328

>  <SCORE.INTRA.DIHEDRAL.0>
23.4151

>  <SCORE.INTRA.POLAR>
0

>  <SCORE.INTRA.POLAR.0>
0

>  <SCORE.INTRA.REPUL>
0

>  <SCORE.INTRA.REPUL.0>
0

>  <SCORE.INTRA.SOLV>
0.147579

>  <SCORE.INTRA.SOLV.lig_0>
-17.3568

>  <SCORE.INTRA.VDW>
-1.66481

>  <SCORE.INTRA.VDW.0>
1.0768

>  <SCORE.INTRA.norm>
-0.207289

>  <SCORE.RESTR>
0.461021

>  <SCORE.RESTR.CAVITY>
0.461021

>  <SCORE.RESTR.norm>
0.0200444

>  <SCORE.SYSTEM>
0

>  <SCORE.SYSTEM.CONST>
0

>  <SCORE.SYSTEM.DIHEDRAL>
0

>  <SCORE.SYSTEM.SOLV>
0

>  <SCORE.SYSTEM.norm>
0

>  <SCORE.heavy>
23

>  <SCORE.norm>
-0.988234

>  <RMSD>
13.990

$$$$
1uui_lig
 OpenBabel11021811413D
libRbt.so/2013.1/901 2013/11/27
 23 24  0  0  0  0  0  0  0  0999 V2000
  -19.4322   -7.6752    8.1808 C   0  0  0  0  0  0  0  0  0  0  0  0
  -18.1037   -6.4683   10.4677 O   0  0  0  0  0  0  0  0  0  0  0  0
  -22.6045   -3.7519    8.2612 O   0  0  0  0  0  0  0  0  0  0  0  0
  -18.3989   -6.9122   11.7980 C   0  0  0  0  0  0  0  0  0  0  0  0
  -22.2364   -2.4093    7.9359 C   0  0  0  0  0  0  0  0  0  0  0  0
  -17.9655   -7.5993    7.8764 N   0  0  0  0  0  0  0  0  0  0  0  0
  -17.6317   -8.2060   12.0750 C   0  0  0  0  0  0  0  0  0  0  0  0
  -17.7154   -6.8640    6.6069 C   0  0  0  0  0  0  0  0  0  0  0  0
  -17.3704   -8.9588    7.7873 C   0  0  0  0  0  0  0  0  0  0  0  0
  -16.1716   -7.8871   12.4117 C   0  0  0  0  0  0  0  0  0  0  0  0
  -18.3781   -7.5540    5.4025 C   0  0  0  0  0  0  0  0  0  0  0  0
  -18.0390   -9.7997    6.6863 C   0  0  0  0  0  0  0  0  0  0  0  0
  -15.4888   -9.1195   12.8650 N   0  0  0  0  0  0  0  0  0  0  0  0
  -18.8051   -8.9528    5.7198 N   0  0  0  0  0  0  0  0  0  0  0  0
  -19.7852   -9.5619    4.9143 C   0  0  0  0  0  0  0  0  0  0  0  0
  -19.4422  -10.1891    3.7533 N   0  0  0  0  0  0  0  0  0  0  0  0
  -21.1102   -9.4233    5.2055 N   0  0  0  0  0  0  0  0  0  0  0  0
  -19.2355   -5.7905    9.9148 C   0  0  0  0  0  0  0  0  0  0  0  0
  -19.9173   -6.3419    8.7956 C   0  0  0  0  0  0  0  0  0  0  0  0
  -21.0397   -5.6619    8.2464 C   0  0  0  0  0  0  0  0  0  0  0  0
  -21.4768   -4.4352    8.8159 C   0  0  0  0  0  0  0  0  0  0  0  0
  -20.7948   -3.8878    9.9342 C   0  0  0  0  0  0  0  0  0  0  0  0
  -19.6739   -4.5650   10.4826 C   0  0  0  0  0  0  0  0  0  0  0  0
  2  4  1  0  0  0  0
  3  5  1  0  0  0  0
  4  7  1  0  0  0  0
  6  1  1  0  0  0  0
  7 10  1  0  0  0  0
  8  6  1  0  0  0  0
  8 11  1  0  0  0  0
  9  6  1  0  0  0  0
 10 13  1  0  0  0  0
 11 14  1  0  0  0  0
 12  9  1  0  0  0  0
 14 12  1  0  0  0  0
 14 15  1  0  0  0  0
 15 16  1  0  0  0  0
 15 17  1  0  0  0  0
 18  2  1  0  0  0  0
 18 23  2  0  0  0  0
 19  1  1  0  0  0  0
 19 18  1  0  0  0  0
 20 19  2  0  0  0  0
 21  3  1  0  0  0  0
 21 20  1  0  0  0  0
 22 21  2  0  0  0  0
 22 23  1  0  0  0  0
M  END
>  <CHROM.1>
148.33924534,79.06906973,-79.54508718,171.96321704,-76.60147266,84.76475429
105.07484785,-112.77579531,-114.74055299,-52.18496984,-125.43129870,-19.13144838
-7.10537893,8.42944102,-1.85041455,-0.81012825,0.98684688

>  <Name>
1uui_lig

>  <RI>
0

>  <Rbt.Current_Directory>
/home/itssahil/PROJECTS/Mol_Feturizer/New_Systems/rnas/1uui

>  <Rbt.Executable>
rbdock ($Id: //depot/dev/client3/rdock/2013.1/src/exe/rbdock.cxx#4 $)

>  <Rbt.Library>
libRbt.so (2013.1, Build901 2013/11/27)

>  <Rbt.Parameter_File>
/export/apps/rDock/src/rDock_2013.1_src/data/scripts/dock_solv.prm

>  <Rbt.Receptor>
prm/blind_docking_80.prm

>  <SCORE>
-22.6756

>  <SCORE.INTER>
-16.3516

>  <SCORE.INTER.CONST>
1

>  <SCORE.INTER.POLAR>
-1.70485

>  <SCORE.INTER.ROT>
10

>  <SCORE.INTER.SOLV>
5.60605

>  <SCORE.INTER.VDW>
-17.3536

>  <SCORE.INTER.norm>
-0.710941

>  <SCORE.INTRA>
-6.81226

>  <SCORE.INTRA.DIHEDRAL>
-4.83666

>  <SCORE.INTRA.DIHEDRAL.0>
23.4151

>  <SCORE.INTRA.POLAR>
-0.666329

>  <SCORE.INTRA.POLAR.0>
0

>  <SCORE.INTRA.REPUL>
0

>  <SCORE.INTRA.REPUL.0>
0

>  <SCORE.INTRA.SOLV>
0.215154

>  <SCORE.INTRA.SOLV.lig_0>
-17.3568

>  <SCORE.INTRA.VDW>
-2.23599

>  <SCORE.INTRA.VDW.0>
1.0768

>  <SCORE.INTRA.norm>
-0.296185

>  <SCORE.RESTR>
0.488264

>  <SCORE.RESTR.CAVITY>
0.488264

>  <SCORE.RESTR.norm>
0.0212289

>  <SCORE.SYSTEM>
0

>  <SCORE.SYSTEM.CONST>
0

>  <SCORE.SYSTEM.DIHEDRAL>
0

>  <SCORE.SYSTEM.SOLV>
0

>  <SCORE.SYSTEM.norm>
0

>  <SCORE.heavy>
23

>  <SCORE.norm>
-0.985897

>  <RMSD>
13.993

$$$$
1uui_lig
 OpenBabel11021811413D
libRbt.so/2013.1/901 2013/11/27
 23 24  0  0  0  0  0  0  0  0999 V2000
  -19.8306   -6.2977    8.6363 C   0  0  0  0  0  0  0  0  0  0  0  0
  -19.1703   -7.8552    6.2720 O   0  0  0  0  0  0  0  0  0  0  0  0
  -15.8086   -8.3973   10.8446 O   0  0  0  0  0  0  0  0  0  0  0  0
  -19.6443   -9.1415    5.8538 C   0  0  0  0  0  0  0  0  0  0  0  0
  -16.5673   -8.9178   11.9389 C   0  0  0  0  0  0  0  0  0  0  0  0
  -20.8213   -6.7644    9.6610 N   0  0  0  0  0  0  0  0  0  0  0  0
  -18.6123   -9.7749    4.9194 C   0  0  0  0  0  0  0  0  0  0  0  0
  -22.2080   -6.3741    9.2877 C   0  0  0  0  0  0  0  0  0  0  0  0
  -20.4959   -6.2145   11.0035 C   0  0  0  0  0  0  0  0  0  0  0  0
  -18.9331  -11.2587    4.7138 C   0  0  0  0  0  0  0  0  0  0  0  0
  -22.3683   -4.8477    9.1862 C   0  0  0  0  0  0  0  0  0  0  0  0
  -20.5044   -4.6763   11.0037 C   0  0  0  0  0  0  0  0  0  0  0  0
  -18.5088  -12.0256    5.9064 N   0  0  0  0  0  0  0  0  0  0  0  0
  -21.2234   -4.1183    9.8162 N   0  0  0  0  0  0  0  0  0  0  0  0
  -20.9853   -2.7814    9.4467 C   0  0  0  0  0  0  0  0  0  0  0  0
  -21.9721   -1.8454    9.5420 N   0  0  0  0  0  0  0  0  0  0  0  0
  -19.8083   -2.4204    8.8604 N   0  0  0  0  0  0  0  0  0  0  0  0
  -18.3305   -7.9925    7.4218 C   0  0  0  0  0  0  0  0  0  0  0  0
  -18.6132   -7.2505    8.6011 C   0  0  0  0  0  0  0  0  0  0  0  0
  -17.7725   -7.3869    9.7407 C   0  0  0  0  0  0  0  0  0  0  0  0
  -16.6538   -8.2628    9.6985 C   0  0  0  0  0  0  0  0  0  0  0  0
  -16.3749   -9.0033    8.5199 C   0  0  0  0  0  0  0  0  0  0  0  0
  -17.2125   -8.8671    7.3817 C   0  0  0  0  0  0  0  0  0  0  0  0
  2  4  1  0  0  0  0
  3  5  1  0  0  0  0
  4  7  1  0  0  0  0
  6  1  1  0  0  0  0
  7 10  1  0  0  0  0
  8  6  1  0  0  0  0
  8 11  1  0  0  0  0
  9  6  1  0  0  0  0
 10 13  1  0  0  0  0
 11 14  1  0  0  0  0
 12  9  1  0  0  0  0
 14 12  1  0  0  0  0
 14 15  1  0  0  0  0
 15 16  1  0  0  0  0
 15 17  1  0  0  0  0
 18  2  1  0  0  0  0
 18 23  2  0  0  0  0
 19  1  1  0  0  0  0
 19 18  1  0  0  0  0
 20 19  2  0  0  0  0
 21  3  1  0  0  0  0
 21 20  1  0  0  0  0
 22 21  2  0  0  0  0
 22 23  1  0  0  0  0
M  END
>  <CHROM.1>
-86.33357089,167.16880504,-150.92198253,-77.06221769,60.66850684,54.61199162
-70.12965654,49.43438693,-125.57991394,116.59913251,62.05640409,-19.26273116
-7.05561950,8.61509651,2.15980494,-0.72173873,0.84723380

>  <Name>
1uui_lig

>  <RI>
0

>  <Rbt.Current_Directory>
/home/itssahil/PROJECTS/Mol_Feturizer/New_Systems/rnas/1uui

>  <Rbt.Executable>
rbdock ($Id: //depot/dev/client3/rdock/2013.1/src/exe/rbdock.cxx#4 $)

>  <Rbt.Library>
libRbt.so (2013.1, Build901 2013/11/27)

>  <Rbt.Parameter_File>
/export/apps/rDock/src/rDock_2013.1_src/data/scripts/dock_solv.prm

>  <Rbt.Receptor>
prm/blind_docking_80.prm

>  <SCORE>
-25.8504

>  <SCORE.INTER>
-22.0396

>  <SCORE.INTER.CONST>
1

>  <SCORE.INTER.POLAR>
-2.85822

>  <SCORE.INTER.ROT>
10

>  <SCORE.INTER.SOLV>
6.98164

>  <SCORE.INTER.VDW>
-17.7595

>  <SCORE.INTER.norm>
-0.958245

>  <SCORE.INTRA>
-4.0108

>  <SCORE.INTRA.DIHEDRAL>
-6.00063

>  <SCORE.INTRA.DIHEDRAL.0>
23.4151

>  <SCORE.INTRA.POLAR>
0

>  <SCORE.INTRA.POLAR.0>
0

>  <SCORE.INTRA.REPUL>
0

>  <SCORE.INTRA.REPUL.0>
0

>  <SCORE.INTRA.SOLV>
0.15539

>  <SCORE.INTRA.SOLV.lig_0>
-17.3568

>  <SCORE.INTRA.VDW>
-1.08818

>  <SCORE.INTRA.VDW.0>
1.0768

>  <SCORE.INTRA.norm>
-0.174383

>  <SCORE.RESTR>
0.199995

>  <SCORE.RESTR.CAVITY>
0.199995

>  <SCORE.RESTR.norm>
0.00869545

>  <SCORE.SYSTEM>
0

>  <SCORE.SYSTEM.CONST>
0

>  <SCORE.SYSTEM.DIHEDRAL>
0

>  <SCORE.SYSTEM.SOLV>
0

>  <SCORE.SYSTEM.norm>
0

>  <SCORE.heavy>
23

>  <SCORE.norm>
-1.12393

>  <RMSD>
14.029

$$$$
1uui_lig
 OpenBabel11021811413D
libRbt.so/2013.1/901 2013/11/27
 23 24  0  0  0  0  0  0  0  0999 V2000
  -19.0908   -6.7300    8.8627 C   0  0  0  0  0  0  0  0  0  0  0  0
  -16.3973   -7.6947    8.3470 O   0  0  0  0  0  0  0  0  0  0  0  0
  -20.7225  -10.3559    5.7559 O   0  0  0  0  0  0  0  0  0  0  0  0
  -15.8264   -8.5509    9.3445 C   0  0  0  0  0  0  0  0  0  0  0  0
  -21.0581  -11.5385    6.4859 C   0  0  0  0  0  0  0  0  0  0  0  0
  -19.9379   -5.7048    8.1693 N   0  0  0  0  0  0  0  0  0  0  0  0
  -16.6325   -8.4185   10.6376 C   0  0  0  0  0  0  0  0  0  0  0  0
  -19.7957   -4.3673    8.8062 C   0  0  0  0  0  0  0  0  0  0  0  0
  -21.3693   -6.1068    8.1748 C   0  0  0  0  0  0  0  0  0  0  0  0
  -15.7477   -8.7528   11.8427 C   0  0  0  0  0  0  0  0  0  0  0  0
  -20.2410   -4.3811   10.2784 C   0  0  0  0  0  0  0  0  0  0  0  0
  -21.9062   -6.2738    9.6066 C   0  0  0  0  0  0  0  0  0  0  0  0
  -16.4588   -8.3977   13.0912 N   0  0  0  0  0  0  0  0  0  0  0  0
  -21.0262   -5.6091   10.6176 N   0  0  0  0  0  0  0  0  0  0  0  0
  -21.1343   -5.9937   11.9670 C   0  0  0  0  0  0  0  0  0  0  0  0
  -22.2446   -6.6423   12.4203 N   0  0  0  0  0  0  0  0  0  0  0  0
  -20.1948   -5.6095   12.8777 N   0  0  0  0  0  0  0  0  0  0  0  0
  -17.4838   -8.3584    7.6950 C   0  0  0  0  0  0  0  0  0  0  0  0
  -18.8188   -7.9227    7.9169 C   0  0  0  0  0  0  0  0  0  0  0  0
  -19.8965   -8.5888    7.2697 C   0  0  0  0  0  0  0  0  0  0  0  0
  -19.6375   -9.6862    6.4043 C   0  0  0  0  0  0  0  0  0  0  0  0
  -18.3033  -10.1181    6.1838 C   0  0  0  0  0  0  0  0  0  0  0  0
  -17.2270   -9.4548    6.8299 C   0  0  0  0  0  0  0  0  0  0  0  0
  2  4  1  0  0  0  0
  3  5  1  0  0  0  0
  4  7  1  0  0  0  0
  6  1  1  0  0  0  0
  7 10  1  0  0  0  0
  8  6  1  0  0  0  0
  8 11  1  0  0  0  0
  9  6  1  0  0  0  0
 10 13  1  0  0  0  0
 11 14  1  0  0  0  0
 12  9  1  0  0  0  0
 14 12  1  0  0  0  0
 14 15  1  0  0  0  0
 15 16  1  0  0  0  0
 15 17  1  0  0  0  0
 18  2  1  0  0  0  0
 18 23  2  0  0  0  0
 19  1  1  0  0  0  0
 19 18  1  0  0  0  0
 20 19  2  0  0  0  0
 21  3  1  0  0  0  0
 21 20  1  0  0  0  0
 22 21  2  0  0  0  0
 22 23  1  0  0  0  0
M  END
>  <CHROM.1>
-84.39441026,-153.70114428,-158.36529076,170.24237879,177.18919863,149.16113579
100.89792244,119.27936544,109.91972159,127.56780189,-98.32621689,-19.19223526
-7.60117764,9.20507802,1.82360162,-0.44294458,0.99565803

>  <Name>
1uui_lig

>  <RI>
0

>  <Rbt.Current_Directory>
/home/itssahil/PROJECTS/Mol_Feturizer/New_Systems/rnas/1uui

>  <Rbt.Executable>
rbdock ($Id: //depot/dev/client3/rdock/2013.1/src/exe/rbdock.cxx#4 $)

>  <Rbt.Library>
libRbt.so (2013.1, Build901 2013/11/27)

>  <Rbt.Parameter_File>
/export/apps/rDock/src/rDock_2013.1_src/data/scripts/dock_solv.prm

>  <Rbt.Receptor>
prm/blind_docking_80.prm

>  <SCORE>
-23.4757

>  <SCORE.INTER>
-19.5423

>  <SCORE.INTER.CONST>
1

>  <SCORE.INTER.POLAR>
-2.32294

>  <SCORE.INTER.ROT>
10

>  <SCORE.INTER.SOLV>
7.17847

>  <SCORE.INTER.VDW>
-17.9445

>  <SCORE.INTER.norm>
-0.849663

>  <SCORE.INTRA>
-3.93938

>  <SCORE.INTRA.DIHEDRAL>
-4.14549

>  <SCORE.INTRA.DIHEDRAL.0>
23.4151

>  <SCORE.INTRA.POLAR>
0

>  <SCORE.INTRA.POLAR.0>
0

>  <SCORE.INTRA.REPUL>
0

>  <SCORE.INTRA.REPUL.0>
0

>  <SCORE.INTRA.SOLV>
-0.0985818

>  <SCORE.INTRA.SOLV.lig_0>
-17.3568

>  <SCORE.INTRA.VDW>
-1.81734

>  <SCORE.INTRA.VDW.0>
1.0768

>  <SCORE.INTRA.norm>
-0.171277

>  <SCORE.RESTR>
0.00592455

>  <SCORE.RESTR.CAVITY>
0.00592455

>  <SCORE.RESTR.norm>
0.000257589

>  <SCORE.SYSTEM>
0

>  <SCORE.SYSTEM.CONST>
0

>  <SCORE.SYSTEM.DIHEDRAL>
0

>  <SCORE.SYSTEM.SOLV>
0

>  <SCORE.SYSTEM.norm>
0

>  <SCORE.heavy>
23

>  <SCORE.norm>
-1.02068

>  <RMSD>
14.035

$$$$
1uui_lig
 OpenBabel11021811413D
libRbt.so/2013.1/901 2013/11/27
 23 24  0  0  0  0  0  0  0  0999 V2000
  -19.6224   -6.6240    8.4240 C   0  0  0  0  0  0  0  0  0  0  0  0
  -17.3878   -8.2772    9.2753 O   0  0  0  0  0  0  0  0  0  0  0  0
  -20.5715  -10.1345    4.9257 O   0  0  0  0  0  0  0  0  0  0  0  0
  -16.2417   -9.1221    9.4384 C   0  0  0  0  0  0  0  0  0  0  0  0
  -20.4479   -9.2341    3.8220 C   0  0  0  0  0  0  0  0  0  0  0  0
  -19.5875   -6.7914    9.9140 N   0  0  0  0  0  0  0  0  0  0  0  0
  -15.4934   -8.7100   10.7070 C   0  0  0  0  0  0  0  0  0  0  0  0
  -20.9098   -7.2279   10.4390 C   0  0  0  0  0  0  0  0  0  0  0  0
  -19.1823   -5.5261   10.5814 C   0  0  0  0  0  0  0  0  0  0  0  0
  -16.4228   -8.8142   11.9204 C   0  0  0  0  0  0  0  0  0  0  0  0
  -22.0151   -6.2011   10.1390 C   0  0  0  0  0  0  0  0  0  0  0  0
  -20.1529   -4.3777   10.2571 C   0  0  0  0  0  0  0  0  0  0  0  0
  -15.7042   -9.4655   13.0384 N   0  0  0  0  0  0  0  0  0  0  0  0
  -21.4556   -4.8784    9.7181 N   0  0  0  0  0  0  0  0  0  0  0  0
  -22.2812   -3.9884    9.0062 C   0  0  0  0  0  0  0  0  0  0  0  0
  -21.8173   -2.7666    8.6177 N   0  0  0  0  0  0  0  0  0  0  0  0
  -23.6003   -4.2709    8.8068 N   0  0  0  0  0  0  0  0  0  0  0  0
  -18.1857   -8.7393    8.1817 C   0  0  0  0  0  0  0  0  0  0  0  0
  -19.2895   -7.9653    7.7303 C   0  0  0  0  0  0  0  0  0  0  0  0
  -20.0829   -8.4312    6.6452 C   0  0  0  0  0  0  0  0  0  0  0  0
  -19.7715   -9.6668    6.0154 C   0  0  0  0  0  0  0  0  0  0  0  0
  -18.6679  -10.4368    6.4676 C   0  0  0  0  0  0  0  0  0  0  0  0
  -17.8761   -9.9734    7.5511 C   0  0  0  0  0  0  0  0  0  0  0  0
  2  4  1  0  0  0  0
  3  5  1  0  0  0  0
  4  7  1  0  0  0  0
  6  1  1  0  0  0  0
  7 10  1  0  0  0  0
  8  6  1  0  0  0  0
  8 11  1  0  0  0  0
  9  6  1  0  0  0  0
 10 13  1  0  0  0  0
 11 14  1  0  0  0  0
 12  9  1  0  0  0  0
 14 12  1  0  0  0  0
 14 15  1  0  0  0  0
 15 16  1  0  0  0  0
 15 17  1  0  0  0  0
 18  2  1  0  0  0  0
 18 23  2  0  0  0  0
 19  1  1  0  0  0  0
 19 18  1  0  0  0  0
 20 19  2  0  0  0  0
 21  3  1  0  0  0  0
 21 20  1  0  0  0  0
 22 21  2  0  0  0  0
 22 23  1  0  0  0  0
M  END
>  <CHROM.1>
-173.47754227,58.30586290,-88.06740597,135.46071414,32.18750637,179.19301519
128.53613723,118.29071881,-172.49659888,-46.08957927,64.38262849,-19.42958954
-7.42436355,8.81843128,2.76888704,-0.69744438,0.92369737

>  <Name>
1uui_lig

>  <RI>
0

>  <Rbt.Current_Directory>
/home/itssahil/PROJECTS/Mol_Feturizer/New_Systems/rnas/1uui

>  <Rbt.Executable>
rbdock ($Id: //depot/dev/client3/rdock/2013.1/src/exe/rbdock.cxx#4 $)

>  <Rbt.Library>
libRbt.so (2013.1, Build901 2013/11/27)

>  <Rbt.Parameter_File>
/export/apps/rDock/src/rDock_2013.1_src/data/scripts/dock_solv.prm

>  <Rbt.Receptor>
prm/blind_docking_100.prm

>  <SCORE>
-17.9569

>  <SCORE.INTER>
-15.2132

>  <SCORE.INTER.CONST>
1

>  <SCORE.INTER.POLAR>
-1.677

>  <SCORE.INTER.ROT>
10

>  <SCORE.INTER.SOLV>
6.83874

>  <SCORE.INTER.VDW>
-17.0984

>  <SCORE.INTER.norm>
-0.661443

>  <SCORE.INTRA>
-2.86189

>  <SCORE.INTRA.DIHEDRAL>
-6.89915

>  <SCORE.INTRA.DIHEDRAL.0>
23.4151

>  <SCORE.INTRA.POLAR>
-0.710496

>  <SCORE.INTRA.POLAR.0>
0

>  <SCORE.INTRA.REPUL>
0

>  <SCORE.INTRA.REPUL.0>
0

>  <SCORE.INTRA.SOLV>
0.31438

>  <SCORE.INTRA.SOLV.lig_0>
-17.3568

>  <SCORE.INTRA.VDW>
2.84618

>  <SCORE.INTRA.VDW.0>
1.0768

>  <SCORE.INTRA.norm>
-0.12443

>  <SCORE.RESTR>
0.118139

>  <SCORE.RESTR.CAVITY>
0.118139

>  <SCORE.RESTR.norm>
0.00513647

>  <SCORE.SYSTEM>
0

>  <SCORE.SYSTEM.CONST>
0

>  <SCORE.SYSTEM.DIHEDRAL>
0

>  <SCORE.SYSTEM.SOLV>
0

>  <SCORE.SYSTEM.norm>
0

>  <SCORE.heavy>
23

>  <SCORE.norm>
-0.780737

>  <RMSD>
14.036

$$$$
1uui_lig
 OpenBabel11021811413D
libRbt.so/2013.1/901 2013/11/27
 23 24  0  0  0  0  0  0  0  0999 V2000
  -19.6096   -7.1884    9.1473 C   0  0  0  0  0  0  0  0  0  0  0  0
  -16.7903   -7.3766    8.4633 O   0  0  0  0  0  0  0  0  0  0  0  0
  -20.5894   -9.2400    4.6425 O   0  0  0  0  0  0  0  0  0  0  0  0
  -15.8724   -8.4278    8.7895 C   0  0  0  0  0  0  0  0  0  0  0  0
  -20.5020  -10.6635    4.5413 C   0  0  0  0  0  0  0  0  0  0  0  0
  -19.8198   -5.7082    9.0279 N   0  0  0  0  0  0  0  0  0  0  0  0
  -16.4523   -9.2605    9.9338 C   0  0  0  0  0  0  0  0  0  0  0  0
  -19.5406   -5.0180   10.3165 C   0  0  0  0  0  0  0  0  0  0  0  0
  -21.2079   -5.4022    8.5922 C   0  0  0  0  0  0  0  0  0  0  0  0
  -16.2770   -8.5184   11.2626 C   0  0  0  0  0  0  0  0  0  0  0  0
  -20.4699   -5.5034   11.4420 C   0  0  0  0  0  0  0  0  0  0  0  0
  -22.2477   -5.9488    9.5852 C   0  0  0  0  0  0  0  0  0  0  0  0
  -16.5881   -9.4330   12.3839 N   0  0  0  0  0  0  0  0  0  0  0  0
  -21.6401   -6.2722   10.9136 N   0  0  0  0  0  0  0  0  0  0  0  0
  -22.3315   -7.1370   11.7823 C   0  0  0  0  0  0  0  0  0  0  0  0
  -22.8764   -8.2988   11.3215 N   0  0  0  0  0  0  0  0  0  0  0  0
  -22.5881   -6.7706   13.0705 N   0  0  0  0  0  0  0  0  0  0  0  0
  -17.7455   -7.8399    7.5047 C   0  0  0  0  0  0  0  0  0  0  0  0
  -19.1355   -7.7689    7.7947 C   0  0  0  0  0  0  0  0  0  0  0  0
  -20.0816   -8.2351    6.8400 C   0  0  0  0  0  0  0  0  0  0  0  0
  -19.6368   -8.7700    5.6005 C   0  0  0  0  0  0  0  0  0  0  0  0
  -18.2482   -8.8385    5.3133 C   0  0  0  0  0  0  0  0  0  0  0  0
  -17.3031   -8.3745    6.2658 C   0  0  0  0  0  0  0  0  0  0  0  0
  2  4  1  0  0  0  0
  3  5  1  0  0  0  0
  4  7  1  0  0  0  0
  6  1  1  0  0  0  0
  7 10  1  0  0  0  0
  8  6  1  0  0  0  0
  8 11  1  0  0  0  0
  9  6  1  0  0  0  0
 10 13  1  0  0  0  0
 11 14  1  0  0  0  0
 12  9  1  0  0  0  0
 14 12  1  0  0  0  0
 14 15  1  0  0  0  0
 15 16  1  0  0  0  0
 15 17  1  0  0  0  0
 18  2  1  0  0  0  0
 18 23  2  0  0  0  0
 19  1  1  0  0  0  0
 19 18  1  0  0  0  0
 20 19  2  0  0  0  0
 21  3  1  0  0  0  0
 21 20  1  0  0  0  0
 22 21  2  0  0  0  0
 22 23  1  0  0  0  0
M  END
>  <CHROM.1>
-87.41211415,-77.23284101,-148.89215429,-168.76656080,55.58921672,-145.84853474
12.40146863,99.92680873,123.16856640,89.94573890,-110.71394840,-19.47896703
-7.66604255,8.97843712,2.04329817,-0.29022173,1.30234969

>  <Name>
1uui_lig

>  <RI>
0

>  <Rbt.Current_Directory>
/home/itssahil/PROJECTS/Mol_Feturizer/New_Systems/rnas/1uui

>  <Rbt.Executable>
rbdock ($Id: //depot/dev/client3/rdock/2013.1/src/exe/rbdock.cxx#4 $)

>  <Rbt.Library>
libRbt.so (2013.1, Build901 2013/11/27)

>  <Rbt.Parameter_File>
/export/apps/rDock/src/rDock_2013.1_src/data/scripts/dock_solv.prm

>  <Rbt.Receptor>
prm/blind_docking_100.prm

>  <SCORE>
-23.2993

>  <SCORE.INTER>
-18.7742

>  <SCORE.INTER.CONST>
1

>  <SCORE.INTER.POLAR>
-2.87555

>  <SCORE.INTER.ROT>
10

>  <SCORE.INTER.SOLV>
6.95794

>  <SCORE.INTER.VDW>
-15.517

>  <SCORE.INTER.norm>
-0.816271

>  <SCORE.INTRA>
-4.73716

>  <SCORE.INTRA.DIHEDRAL>
-4.96874

>  <SCORE.INTRA.DIHEDRAL.0>
23.4151

>  <SCORE.INTRA.POLAR>
0

>  <SCORE.INTRA.POLAR.0>
0

>  <SCORE.INTRA.REPUL>
0

>  <SCORE.INTRA.REPUL.0>
0

>  <SCORE.INTRA.SOLV>
0.0520618

>  <SCORE.INTRA.SOLV.lig_0>
-17.3568

>  <SCORE.INTRA.VDW>
-2.27881

>  <SCORE.INTRA.VDW.0>
1.0768

>  <SCORE.INTRA.norm>
-0.205963

>  <SCORE.RESTR>
0.212069

>  <SCORE.RESTR.CAVITY>
0.212069

>  <SCORE.RESTR.norm>
0.00922037

>  <SCORE.SYSTEM>
0

>  <SCORE.SYSTEM.CONST>
0

>  <SCORE.SYSTEM.DIHEDRAL>
0

>  <SCORE.SYSTEM.SOLV>
0

>  <SCORE.SYSTEM.norm>
0

>  <SCORE.heavy>
23

>  <SCORE.norm>
-1.01301

>  <RMSD>
14.038

$$$$
1uui_lig
 OpenBabel11021811413D
libRbt.so/2013.1/901 2013/11/27
 23 24  0  0  0  0  0  0  0  0999 V2000
  -17.8143   -7.9540    8.4735 C   0  0  0  0  0  0  0  0  0  0  0  0
  -19.2742   -6.8243   10.7193 O   0  0  0  0  0  0  0  0  0  0  0  0
  -18.6657   -3.6111    6.0493 O   0  0  0  0  0  0  0  0  0  0  0  0
  -20.5951   -6.6697   11.2537 C   0  0  0  0  0  0  0  0  0  0  0  0
  -19.2588   -4.2743    4.9302 C   0  0  0  0  0  0  0  0  0  0  0  0
  -18.9002   -8.9663    8.6869 N   0  0  0  0  0  0  0  0  0  0  0  0
  -21.6049   -7.2625   10.2698 C   0  0  0  0  0  0  0  0  0  0  0  0
  -18.4487  -10.3310    8.3016 C   0  0  0  0  0  0  0  0  0  0  0  0
  -20.1183   -8.6099    7.9125 C   0  0  0  0  0  0  0  0  0  0  0  0
  -23.0285   -6.8782   10.6853 C   0  0  0  0  0  0  0  0  0  0  0  0
  -18.0614  -10.4103    6.8151 C   0  0  0  0  0  0  0  0  0  0  0  0
  -19.8298   -8.5369    6.4033 C   0  0  0  0  0  0  0  0  0  0  0  0
  -23.9745   -7.2507    9.6097 N   0  0  0  0  0  0  0  0  0  0  0  0
  -18.5528   -9.2274    6.0414 N   0  0  0  0  0  0  0  0  0  0  0  0
  -17.9410   -8.9194    4.8120 C   0  0  0  0  0  0  0  0  0  0  0  0
  -16.6437   -9.2642    4.5732 N   0  0  0  0  0  0  0  0  0  0  0  0
  -18.5858   -8.1534    3.8862 N   0  0  0  0  0  0  0  0  0  0  0  0
  -19.1236   -6.0214    9.5451 C   0  0  0  0  0  0  0  0  0  0  0  0
  -18.4169   -6.5308    8.4216 C   0  0  0  0  0  0  0  0  0  0  0  0
  -18.2657   -5.7269    7.2577 C   0  0  0  0  0  0  0  0  0  0  0  0
  -18.8202   -4.4187    7.2198 C   0  0  0  0  0  0  0  0  0  0  0  0
  -19.5265   -3.9133    8.3428 C   0  0  0  0  0  0  0  0  0  0  0  0
  -19.6770   -4.7143    9.5053 C   0  0  0  0  0  0  0  0  0  0  0  0
  2  4  1  0  0  0  0
  3  5  1  0  0  0  0
  4  7  1  0  0  0  0
  6  1  1  0  0  0  0
  7 10  1  0  0  0  0
  8  6  1  0  0  0  0
  8 11  1  0  0  0  0
  9  6  1  0  0  0  0
 10 13  1  0  0  0  0
 11 14  1  0  0  0  0
 12  9  1  0  0  0  0
 14 12  1  0  0  0  0
 14 15  1  0  0  0  0
 15 16  1  0  0  0  0
 15 17  1  0  0  0  0
 18  2  1  0  0  0  0
 18 23  2  0  0  0  0
 19  1  1  0  0  0  0
 19 18  1  0  0  0  0
 20 19  2  0  0  0  0
 21  3  1  0  0  0  0
 21 20  1  0  0  0  0
 22 21  2  0  0  0  0
 22 23  1  0  0  0  0
M  END
>  <CHROM.1>
66.57348486,-169.35400910,161.27984538,170.21199545,54.94263222,-27.45576193
18.12431061,-48.12392192,-139.65800669,60.48981522,59.79712350,-19.38653098
-7.18808987,7.77862260,0.24677388,-0.97334516,3.02230462

>  <Name>
1uui_lig

>  <RI>
0

>  <Rbt.Current_Directory>
/home/itssahil/PROJECTS/Mol_Feturizer/New_Systems/rnas/1uui

>  <Rbt.Executable>
rbdock ($Id: //depot/dev/client3/rdock/2013.1/src/exe/rbdock.cxx#4 $)

>  <Rbt.Library>
libRbt.so (2013.1, Build901 2013/11/27)

>  <Rbt.Parameter_File>
/export/apps/rDock/src/rDock_2013.1_src/data/scripts/dock_solv.prm

>  <Rbt.Receptor>
prm/blind_docking_100.prm

>  <SCORE>
-29.3481

>  <SCORE.INTER>
-27.4253

>  <SCORE.INTER.CONST>
1

>  <SCORE.INTER.POLAR>
-3.89788

>  <SCORE.INTER.ROT>
10

>  <SCORE.INTER.SOLV>
9.30873

>  <SCORE.INTER.VDW>
-18.6602

>  <SCORE.INTER.norm>
-1.1924

>  <SCORE.INTRA>
-3.96475

>  <SCORE.INTRA.DIHEDRAL>
-11.475

>  <SCORE.INTRA.DIHEDRAL.0>
23.4151

>  <SCORE.INTRA.POLAR>
-0.0776157

>  <SCORE.INTRA.POLAR.0>
0

>  <SCORE.INTRA.REPUL>
0

>  <SCORE.INTRA.REPUL.0>
0

>  <SCORE.INTRA.SOLV>
0.657708

>  <SCORE.INTRA.SOLV.lig_0>
-17.3568

>  <SCORE.INTRA.VDW>
1.70781

>  <SCORE.INTRA.VDW.0>
1.0768

>  <SCORE.INTRA.norm>
-0.17238

>  <SCORE.RESTR>
2.04186

>  <SCORE.RESTR.CAVITY>
2.04186

>  <SCORE.RESTR.norm>
0.0887767

>  <SCORE.SYSTEM>
0

>  <SCORE.SYSTEM.CONST>
0

>  <SCORE.SYSTEM.DIHEDRAL>
0

>  <SCORE.SYSTEM.SOLV>
0

>  <SCORE.SYSTEM.norm>
0

>  <SCORE.heavy>
23

>  <SCORE.norm>
-1.27601

>  <RMSD>
14.049

$$$$
1uui_lig
 OpenBabel11021811413D
libRbt.so/2013.1/901 2013/11/27
 23 24  0  0  0  0  0  0  0  0999 V2000
  -20.8736   -6.3246    8.1034 C   0  0  0  0  0  0  0  0  0  0  0  0
  -20.8169   -7.7305    5.5595 O   0  0  0  0  0  0  0  0  0  0  0  0
  -16.1418   -7.9256    8.8166 O   0  0  0  0  0  0  0  0  0  0  0  0
  -21.1982   -9.0547    5.1656 C   0  0  0  0  0  0  0  0  0  0  0  0
  -16.0519   -9.2041    9.4502 C   0  0  0  0  0  0  0  0  0  0  0  0
  -20.8066   -6.0899    9.5832 N   0  0  0  0  0  0  0  0  0  0  0  0
  -20.3540   -9.4812    3.9637 C   0  0  0  0  0  0  0  0  0  0  0  0
  -22.1318   -6.3078   10.2245 C   0  0  0  0  0  0  0  0  0  0  0  0
  -20.3318   -4.7130    9.8817 C   0  0  0  0  0  0  0  0  0  0  0  0
  -19.4814  -10.6838    4.3370 C   0  0  0  0  0  0  0  0  0  0  0  0
  -23.2009   -5.3474    9.6763 C   0  0  0  0  0  0  0  0  0  0  0  0
  -21.2620   -3.6483    9.2757 C   0  0  0  0  0  0  0  0  0  0  0  0
  -18.1558  -10.5512    3.6922 N   0  0  0  0  0  0  0  0  0  0  0  0
  -22.5981   -4.2128    8.9088 N   0  0  0  0  0  0  0  0  0  0  0  0
  -23.4044   -3.5070    7.9965 C   0  0  0  0  0  0  0  0  0  0  0  0
  -22.8956   -3.0705    6.8092 N   0  0  0  0  0  0  0  0  0  0  0  0
  -24.6697   -3.1274    8.3347 N   0  0  0  0  0  0  0  0  0  0  0  0
  -19.6464   -7.7813    6.3801 C   0  0  0  0  0  0  0  0  0  0  0  0
  -19.6267   -7.1085    7.6324 C   0  0  0  0  0  0  0  0  0  0  0  0
  -18.4587   -7.1580    8.4431 C   0  0  0  0  0  0  0  0  0  0  0  0
  -17.3160   -7.8784    8.0010 C   0  0  0  0  0  0  0  0  0  0  0  0
  -17.3392   -8.5502    6.7506 C   0  0  0  0  0  0  0  0  0  0  0  0
  -18.5039   -8.5006    5.9402 C   0  0  0  0  0  0  0  0  0  0  0  0
  2  4  1  0  0  0  0
  3  5  1  0  0  0  0
  4  7  1  0  0  0  0
  6  1  1  0  0  0  0
  7 10  1  0  0  0  0
  8  6  1  0  0  0  0
  8 11  1  0  0  0  0
  9  6  1  0  0  0  0
 10 13  1  0  0  0  0
 11 14  1  0  0  0  0
 12  9  1  0  0  0  0
 14 12  1  0  0  0  0
 14 15  1  0  0  0  0
 15 16  1  0  0  0  0
 15 17  1  0  0  0  0
 18  2  1  0  0  0  0
 18 23  2  0  0  0  0
 19  1  1  0  0  0  0
 19 18  1  0  0  0  0
 20 19  2  0  0  0  0
 21  3  1  0  0  0  0
 21 20  1  0  0  0  0
 22 21  2  0  0  0  0
 22 23  1  0  0  0  0
M  END
>  <CHROM.1>
-82.05835224,116.41019716,-138.00372685,-141.95568617,44.58215771,-141.97213009
-166.42074538,-11.85103921,-128.97255771,161.53051201,104.12367601,-20.25295994
-6.85792876,7.49631013,-2.35888378,0.52904932,-2.17932296

>  <Name>
1uui_lig

>  <RI>
0

>  <Rbt.Current_Directory>
/home/itssahil/PROJECTS/Mol_Feturizer/New_Systems/rnas/1uui

>  <Rbt.Executable>
rbdock ($Id: //depot/dev/client3/rdock/2013.1/src/exe/rbdock.cxx#4 $)

>  <Rbt.Library>
libRbt.so (2013.1, Build901 2013/11/27)

>  <Rbt.Parameter_File>
/export/apps/rDock/src/rDock_2013.1_src/data/scripts/dock_solv.prm

>  <Rbt.Receptor>
prm/blind_docking_60.prm

>  <SCORE>
-15.8999

>  <SCORE.INTER>
-20.6074

>  <SCORE.INTER.CONST>
1

>  <SCORE.INTER.POLAR>
-1.84853

>  <SCORE.INTER.ROT>
10

>  <SCORE.INTER.SOLV>
8.32544

>  <SCORE.INTER.VDW>
-20.6184

>  <SCORE.INTER.norm>
-0.895976

>  <SCORE.INTRA>
3.86911

>  <SCORE.INTRA.DIHEDRAL>
3.25098

>  <SCORE.INTRA.DIHEDRAL.0>
23.4151

>  <SCORE.INTRA.POLAR>
0

>  <SCORE.INTRA.POLAR.0>
0

>  <SCORE.INTRA.REPUL>
0

>  <SCORE.INTRA.REPUL.0>
0

>  <SCORE.INTRA.SOLV>
0.28242

>  <SCORE.INTRA.SOLV.lig_0>
-17.3568

>  <SCORE.INTRA.VDW>
2.10241

>  <SCORE.INTRA.VDW.0>
1.0768

>  <SCORE.INTRA.norm>
0.168222

>  <SCORE.RESTR>
0.8384

>  <SCORE.RESTR.CAVITY>
0.8384

>  <SCORE.RESTR.norm>
0.0364522

>  <SCORE.SYSTEM>
0

>  <SCORE.SYSTEM.CONST>
0

>  <SCORE.SYSTEM.DIHEDRAL>
0

>  <SCORE.SYSTEM.SOLV>
0

>  <SCORE.SYSTEM.norm>
0

>  <SCORE.heavy>
23

>  <SCORE.norm>
-0.691301

>  <RMSD>
14.049

$$$$
1uui_lig
 OpenBabel11021811413D
libRbt.so/2013.1/901 2013/11/27
 23 24  0  0  0  0  0  0  0  0999 V2000
  -20.2254   -8.8172    7.7126 C   0  0  0  0  0  0  0  0  0  0  0  0
  -19.1558   -6.7762    5.9401 O   0  0  0  0  0  0  0  0  0  0  0  0
  -18.1191  -12.2326    4.6531 O   0  0  0  0  0  0  0  0  0  0  0  0
  -17.9307   -6.1154    6.2813 C   0  0  0  0  0  0  0  0  0  0  0  0
  -18.8338  -12.5896    3.4674 C   0  0  0  0  0  0  0  0  0  0  0  0
  -19.3389   -8.8027    8.9223 N   0  0  0  0  0  0  0  0  0  0  0  0
  -18.2108   -4.6290    6.5079 C   0  0  0  0  0  0  0  0  0  0  0  0
  -20.0356   -9.3701   10.1085 C   0  0  0  0  0  0  0  0  0  0  0  0
  -18.8818   -7.4216    9.2293 C   0  0  0  0  0  0  0  0  0  0  0  0
  -19.4032   -4.4593    7.4547 C   0  0  0  0  0  0  0  0  0  0  0  0
  -21.2931   -8.5645   10.4768 C   0  0  0  0  0  0  0  0  0  0  0  0
  -20.0669   -6.4790    9.5002 C   0  0  0  0  0  0  0  0  0  0  0  0
  -19.2321   -3.2212    8.2475 N   0  0  0  0  0  0  0  0  0  0  0  0
  -21.3255   -7.2305    9.7992 N   0  0  0  0  0  0  0  0  0  0  0  0
  -22.5587   -6.5647    9.6712 C   0  0  0  0  0  0  0  0  0  0  0  0
  -22.7539   -5.3426   10.2435 N   0  0  0  0  0  0  0  0  0  0  0  0
  -23.6261   -7.1823    9.0892 N   0  0  0  0  0  0  0  0  0  0  0  0
  -18.9002   -8.1461    5.6171 C   0  0  0  0  0  0  0  0  0  0  0  0
  -19.4023   -9.1794    6.4546 C   0  0  0  0  0  0  0  0  0  0  0  0
  -19.1418  -10.5402    6.1317 C   0  0  0  0  0  0  0  0  0  0  0  0
  -18.3817  -10.8639    4.9751 C   0  0  0  0  0  0  0  0  0  0  0  0
  -17.8828   -9.8299    4.1401 C   0  0  0  0  0  0  0  0  0  0  0  0
  -18.1412   -8.4714    4.4619 C   0  0  0  0  0  0  0  0  0  0  0  0
  2  4  1  0  0  0  0
  3  5  1  0  0  0  0
  4  7  1  0  0  0  0
  6  1  1  0  0  0  0
  7 10  1  0  0  0  0
  8  6  1  0  0  0  0
  8 11  1  0  0  0  0
  9  6  1  0  0  0  0
 10 13  1  0  0  0  0
 11 14  1  0  0  0  0
 12  9  1  0  0  0  0
 14 12  1  0  0  0  0
 14 15  1  0  0  0  0
 15 16  1  0  0  0  0
 15 17  1  0  0  0  0
 18  2  1  0  0  0  0
 18 23  2  0  0  0  0
 19  1  1  0  0  0  0
 19 18  1  0  0  0  0
 20 19  2  0  0  0  0
 21  3  1  0  0  0  0
 21 20  1  0  0  0  0
 22 21  2  0  0  0  0
 22 23  1  0  0  0  0
M  END
>  <CHROM.1>
175.30158544,49.33259396,-141.37820213,148.71245677,120.25111504,119.04446315
-132.20496372,45.53403808,113.57964565,-96.23368075,111.37832892,-19.72879780
-7.88037058,7.40348869,0.94011504,-0.88922712,-2.89748237

>  <Name>
1uui_lig

>  <RI>
0

>  <Rbt.Current_Directory>
/home/itssahil/PROJECTS/Mol_Feturizer/New_Systems/rnas/1uui

>  <Rbt.Executable>
rbdock ($Id: //depot/dev/client3/rdock/2013.1/src/exe/rbdock.cxx#4 $)

>  <Rbt.Library>
libRbt.so (2013.1, Build901 2013/11/27)

>  <Rbt.Parameter_File>
/export/apps/rDock/src/rDock_2013.1_src/data/scripts/dock_solv.prm

>  <Rbt.Receptor>
prm/blind_docking_60.prm

>  <SCORE>
-17.3803

>  <SCORE.INTER>
-17.2774

>  <SCORE.INTER.CONST>
1

>  <SCORE.INTER.POLAR>
-3.05665

>  <SCORE.INTER.ROT>
10

>  <SCORE.INTER.SOLV>
8.555

>  <SCORE.INTER.VDW>
-14.4478

>  <SCORE.INTER.norm>
-0.751192

>  <SCORE.INTRA>
-1.53439

>  <SCORE.INTRA.DIHEDRAL>
-1.35499

>  <SCORE.INTRA.DIHEDRAL.0>
23.4151

>  <SCORE.INTRA.POLAR>
0

>  <SCORE.INTRA.POLAR.0>
0

>  <SCORE.INTRA.REPUL>
0

>  <SCORE.INTRA.REPUL.0>
0

>  <SCORE.INTRA.SOLV>
0.532417

>  <SCORE.INTRA.SOLV.lig_0>
-17.3568

>  <SCORE.INTRA.VDW>
-1.1231

>  <SCORE.INTRA.VDW.0>
1.0768

>  <SCORE.INTRA.norm>
-0.0667125

>  <SCORE.RESTR>
1.43154

>  <SCORE.RESTR.CAVITY>
1.43154

>  <SCORE.RESTR.norm>
0.062241

>  <SCORE.SYSTEM>
0

>  <SCORE.SYSTEM.CONST>
0

>  <SCORE.SYSTEM.DIHEDRAL>
0

>  <SCORE.SYSTEM.SOLV>
0

>  <SCORE.SYSTEM.norm>
0

>  <SCORE.heavy>
23

>  <SCORE.norm>
-0.755663

>  <RMSD>
14.051

$$$$
1uui_lig
 OpenBabel11021811413D
libRbt.so/2013.1/901 2013/11/27
 23 24  0  0  0  0  0  0  0  0999 V2000
  -19.9380   -6.3229    7.4664 C   0  0  0  0  0  0  0  0  0  0  0  0
  -20.3162   -7.8196    5.0031 O   0  0  0  0  0  0  0  0  0  0  0  0
  -15.8917   -9.2155    8.3165 O   0  0  0  0  0  0  0  0  0  0  0  0
  -21.0492   -8.9962    4.6392 C   0  0  0  0  0  0  0  0  0  0  0  0
  -16.3574   -9.5299    9.6311 C   0  0  0  0  0  0  0  0  0  0  0  0
  -19.1769   -5.2524    8.1905 N   0  0  0  0  0  0  0  0  0  0  0  0
  -22.2572   -8.5909    3.7933 C   0  0  0  0  0  0  0  0  0  0  0  0
  -19.1398   -5.5136    9.6551 C   0  0  0  0  0  0  0  0  0  0  0  0
  -19.7746   -3.9142    7.9405 C   0  0  0  0  0  0  0  0  0  0  0  0
  -23.1806   -7.6757    4.6038 C   0  0  0  0  0  0  0  0  0  0  0  0
  -20.5494   -5.5418   10.2701 C   0  0  0  0  0  0  0  0  0  0  0  0
  -21.2391   -3.8510    8.4068 C   0  0  0  0  0  0  0  0  0  0  0  0
  -22.4561   -6.4362    4.9631 N   0  0  0  0  0  0  0  0  0  0  0  0
  -21.5771   -4.9627    9.3493 N   0  0  0  0  0  0  0  0  0  0  0  0
  -22.9303   -5.2931    9.5496 C   0  0  0  0  0  0  0  0  0  0  0  0
  -23.9221   -4.5203    9.0223 N   0  0  0  0  0  0  0  0  0  0  0  0
  -23.2817   -6.3124   10.3846 N   0  0  0  0  0  0  0  0  0  0  0  0
  -19.2090   -8.1706    5.8379 C   0  0  0  0  0  0  0  0  0  0  0  0
  -18.9830   -7.4664    7.0521 C   0  0  0  0  0  0  0  0  0  0  0  0
  -17.8779   -7.8161    7.8769 C   0  0  0  0  0  0  0  0  0  0  0  0
  -17.0034   -8.8665    7.4868 C   0  0  0  0  0  0  0  0  0  0  0  0
  -17.2324   -9.5687    6.2745 C   0  0  0  0  0  0  0  0  0  0  0  0
  -18.3344   -9.2199    5.4499 C   0  0  0  0  0  0  0  0  0  0  0  0
  2  4  1  0  0  0  0
  3  5  1  0  0  0  0
  4  7  1  0  0  0  0
  6  1  1  0  0  0  0
  7 10  1  0  0  0  0
  8  6  1  0  0  0  0
  8 11  1  0  0  0  0
  9  6  1  0  0  0  0
 10 13  1  0  0  0  0
 11 14  1  0  0  0  0
 12  9  1  0  0  0  0
 14 12  1  0  0  0  0
 14 15  1  0  0  0  0
 15 16  1  0  0  0  0
 15 17  1  0  0  0  0
 18  2  1  0  0  0  0
 18 23  2  0  0  0  0
 19  1  1  0  0  0  0
 19 18  1  0  0  0  0
 20 19  2  0  0  0  0
 21  3  1  0  0  0  0
 21 20  1  0  0  0  0
 22 21  2  0  0  0  0
 22 23  1  0  0  0  0
M  END
>  <CHROM.1>
177.81566467,-61.17700917,-89.59841168,62.21106000,-37.73786897,160.64912415
-101.62972381,151.36936628,-130.97267480,-146.01050449,55.98404538,-20.14177558
-6.95429395,7.46061164,-2.56482491,0.44972111,-2.13808947

>  <Name>
1uui_lig

>  <RI>
0

>  <Rbt.Current_Directory>
/home/itssahil/PROJECTS/Mol_Feturizer/New_Systems/rnas/1uui

>  <Rbt.Executable>
rbdock ($Id: //depot/dev/client3/rdock/2013.1/src/exe/rbdock.cxx#4 $)

>  <Rbt.Library>
libRbt.so (2013.1, Build901 2013/11/27)

>  <Rbt.Parameter_File>
/export/apps/rDock/src/rDock_2013.1_src/data/scripts/dock_solv.prm

>  <Rbt.Receptor>
prm/blind_docking_60.prm

>  <SCORE>
-23.2369

>  <SCORE.INTER>
-17.2714

>  <SCORE.INTER.CONST>
1

>  <SCORE.INTER.POLAR>
-2.36756

>  <SCORE.INTER.ROT>
10

>  <SCORE.INTER.SOLV>
7.30479

>  <SCORE.INTER.VDW>
-16.324

>  <SCORE.INTER.norm>
-0.75093

>  <SCORE.INTRA>
-5.96778

>  <SCORE.INTRA.DIHEDRAL>
-10.1311

>  <SCORE.INTRA.DIHEDRAL.0>
23.4151

>  <SCORE.INTRA.POLAR>
-0.85908

>  <SCORE.INTRA.POLAR.0>
0

>  <SCORE.INTRA.REPUL>
0

>  <SCORE.INTRA.REPUL.0>
0

>  <SCORE.INTRA.SOLV>
0.750121

>  <SCORE.INTRA.SOLV.lig_0>
-17.3568

>  <SCORE.INTRA.VDW>
1.64359

>  <SCORE.INTRA.VDW.0>
1.0768

>  <SCORE.INTRA.norm>
-0.259468

>  <SCORE.RESTR>
0.00227306

>  <SCORE.RESTR.CAVITY>
0.00227306

>  <SCORE.RESTR.norm>
9.88288e-05

>  <SCORE.SYSTEM>
0

>  <SCORE.SYSTEM.CONST>
0

>  <SCORE.SYSTEM.DIHEDRAL>
0

>  <SCORE.SYSTEM.SOLV>
0

>  <SCORE.SYSTEM.norm>
0

>  <SCORE.heavy>
23

>  <SCORE.norm>
-1.0103

>  <RMSD>
14.092

$$$$
1uui_lig
 OpenBabel11021811413D
libRbt.so/2013.1/901 2013/11/27
 23 24  0  0  0  0  0  0  0  0999 V2000
  -20.0324   -6.7595    6.3180 C   0  0  0  0  0  0  0  0  0  0  0  0
  -20.1778   -8.7811    8.4021 O   0  0  0  0  0  0  0  0  0  0  0  0
  -22.4324   -3.6600    9.4953 O   0  0  0  0  0  0  0  0  0  0  0  0
  -18.9610   -8.9451    9.1413 C   0  0  0  0  0  0  0  0  0  0  0  0
  -21.4925   -2.6415    9.1440 C   0  0  0  0  0  0  0  0  0  0  0  0
  -21.0802   -6.9212    5.2572 N   0  0  0  0  0  0  0  0  0  0  0  0
  -17.8320   -8.2130    8.4142 C   0  0  0  0  0  0  0  0  0  0  0  0
  -21.7109   -8.2675    5.3226 C   0  0  0  0  0  0  0  0  0  0  0  0
  -20.5028   -6.7094    3.9036 C   0  0  0  0  0  0  0  0  0  0  0  0
  -16.5267   -9.0047    8.5423 C   0  0  0  0  0  0  0  0  0  0  0  0
  -20.6867   -9.3937    5.1024 C   0  0  0  0  0  0  0  0  0  0  0  0
  -19.3714   -7.7085    3.6069 C   0  0  0  0  0  0  0  0  0  0  0  0
  -16.1272   -9.0716    9.9658 N   0  0  0  0  0  0  0  0  0  0  0  0
  -19.4000   -8.8816    4.5350 N   0  0  0  0  0  0  0  0  0  0  0  0
  -18.2384   -9.6637    4.6743 C   0  0  0  0  0  0  0  0  0  0  0  0
  -17.0303   -9.0805    4.9173 N   0  0  0  0  0  0  0  0  0  0  0  0
  -18.2706  -11.0061    4.4367 N   0  0  0  0  0  0  0  0  0  0  0  0
  -20.7462   -7.4967    8.6727 C   0  0  0  0  0  0  0  0  0  0  0  0
  -20.6985   -6.4758    7.6844 C   0  0  0  0  0  0  0  0  0  0  0  0
  -21.2612   -5.1985    7.9597 C   0  0  0  0  0  0  0  0  0  0  0  0
  -21.8688   -4.9455    9.2195 C   0  0  0  0  0  0  0  0  0  0  0  0
  -21.9160   -5.9673   10.2039 C   0  0  0  0  0  0  0  0  0  0  0  0
  -21.3539   -7.2421    9.9307 C   0  0  0  0  0  0  0  0  0  0  0  0
  2  4  1  0  0  0  0
  3  5  1  0  0  0  0
  4  7  1  0  0  0  0
  6  1  1  0  0  0  0
  7 10  1  0  0  0  0
  8  6  1  0  0  0  0
  8 11  1  0  0  0  0
  9  6  1  0  0  0  0
 10 13  1  0  0  0  0
 11 14  1  0  0  0  0
 12  9  1  0  0  0  0
 14 12  1  0  0  0  0
 14 15  1  0  0  0  0
 15 16  1  0  0  0  0
 15 17  1  0  0  0  0
 18  2  1  0  0  0  0
 18 23  2  0  0  0  0
 19  1  1  0  0  0  0
 19 18  1  0  0  0  0
 20 19  2  0  0  0  0
 21  3  1  0  0  0  0
 21 20  1  0  0  0  0
 22 21  2  0  0  0  0
 22 23  1  0  0  0  0
M  END
>  <CHROM.1>
-79.71380721,-143.50206803,-78.12799298,-63.61565823,159.68905537,-142.10822240
-101.06082618,6.62087350,107.22329688,105.66314039,-48.73770123,-19.83053594
-7.52105525,7.15030285,2.28508164,-0.74814135,1.24678819

>  <Name>
1uui_lig

>  <RI>
0

>  <Rbt.Current_Directory>
/home/itssahil/PROJECTS/Mol_Feturizer/New_Systems/rnas/1uui

>  <Rbt.Executable>
rbdock ($Id: //depot/dev/client3/rdock/2013.1/src/exe/rbdock.cxx#4 $)

>  <Rbt.Library>
libRbt.so (2013.1, Build901 2013/11/27)

>  <Rbt.Parameter_File>
/export/apps/rDock/src/rDock_2013.1_src/data/scripts/dock_solv.prm

>  <Rbt.Receptor>
prm/blind_docking_100.prm

>  <SCORE>
-23.4542

>  <SCORE.INTER>
-22.2638

>  <SCORE.INTER.CONST>
1

>  <SCORE.INTER.POLAR>
-3.09752

>  <SCORE.INTER.ROT>
10

>  <SCORE.INTER.SOLV>
5.99499

>  <SCORE.INTER.VDW>
-16.7825

>  <SCORE.INTER.norm>
-0.967991

>  <SCORE.INTRA>
-3.18247

>  <SCORE.INTRA.DIHEDRAL>
-4.69426

>  <SCORE.INTRA.DIHEDRAL.0>
23.4151

>  <SCORE.INTRA.POLAR>
0

>  <SCORE.INTRA.POLAR.0>
0

>  <SCORE.INTRA.REPUL>
0.0338448

>  <SCORE.INTRA.REPUL.0>
0

>  <SCORE.INTRA.SOLV>
0.715558

>  <SCORE.INTRA.SOLV.lig_0>
-17.3568

>  <SCORE.INTRA.VDW>
-1.36234

>  <SCORE.INTRA.VDW.0>
1.0768

>  <SCORE.INTRA.norm>
-0.138368

>  <SCORE.RESTR>
1.99209

>  <SCORE.RESTR.CAVITY>
1.99209

>  <SCORE.RESTR.norm>
0.0866125

>  <SCORE.SYSTEM>
0

>  <SCORE.SYSTEM.CONST>
0

>  <SCORE.SYSTEM.DIHEDRAL>
0

>  <SCORE.SYSTEM.SOLV>
0

>  <SCORE.SYSTEM.norm>
0

>  <SCORE.heavy>
23

>  <SCORE.norm>
-1.01975

>  <RMSD>
14.105

$$$$
1uui_lig
 OpenBabel11021811413D
libRbt.so/2013.1/901 2013/11/27
 23 24  0  0  0  0  0  0  0  0999 V2000
  -19.9437   -7.1220    8.8682 C   0  0  0  0  0  0  0  0  0  0  0  0
  -17.0795   -7.4588    8.5023 O   0  0  0  0  0  0  0  0  0  0  0  0
  -20.5571   -9.9108    4.7079 O   0  0  0  0  0  0  0  0  0  0  0  0
  -16.9734   -8.2825    9.6703 C   0  0  0  0  0  0  0  0  0  0  0  0
  -20.5323  -11.3289    4.8881 C   0  0  0  0  0  0  0  0  0  0  0  0
  -20.8079   -6.0094    8.3536 N   0  0  0  0  0  0  0  0  0  0  0  0
  -16.4508   -9.6612    9.2637 C   0  0  0  0  0  0  0  0  0  0  0  0
  -20.3643   -4.6919    8.8846 C   0  0  0  0  0  0  0  0  0  0  0  0
  -22.2331   -6.2342    8.7126 C   0  0  0  0  0  0  0  0  0  0  0  0
  -17.6247  -10.5987    8.9636 C   0  0  0  0  0  0  0  0  0  0  0  0
  -20.4434   -4.6343   10.4196 C   0  0  0  0  0  0  0  0  0  0  0  0
  -22.4278   -6.3182   10.2361 C   0  0  0  0  0  0  0  0  0  0  0  0
  -17.1622  -11.7090    8.1013 N   0  0  0  0  0  0  0  0  0  0  0  0
  -21.2611   -5.7537   10.9836 N   0  0  0  0  0  0  0  0  0  0  0  0
  -21.0872   -6.1068   12.3347 C   0  0  0  0  0  0  0  0  0  0  0  0
  -19.8383   -6.2596   12.8601 N   0  0  0  0  0  0  0  0  0  0  0  0
  -22.1586   -6.4347   13.1120 N   0  0  0  0  0  0  0  0  0  0  0  0
  -17.9539   -8.0699    7.5493 C   0  0  0  0  0  0  0  0  0  0  0  0
  -19.3623   -7.9333    7.6872 C   0  0  0  0  0  0  0  0  0  0  0  0
  -20.2281   -8.5466    6.7396 C   0  0  0  0  0  0  0  0  0  0  0  0
  -19.6850   -9.2932    5.6588 C   0  0  0  0  0  0  0  0  0  0  0  0
  -18.2782   -9.4267    5.5231 C   0  0  0  0  0  0  0  0  0  0  0  0
  -17.4132   -8.8160    6.4689 C   0  0  0  0  0  0  0  0  0  0  0  0
  2  4  1  0  0  0  0
  3  5  1  0  0  0  0
  4  7  1  0  0  0  0
  6  1  1  0  0  0  0
  7 10  1  0  0  0  0
  8  6  1  0  0  0  0
  8 11  1  0  0  0  0
  9  6  1  0  0  0  0
 10 13  1  0  0  0  0
 11 14  1  0  0  0  0
 12  9  1  0  0  0  0
 14 12  1  0  0  0  0
 14 15  1  0  0  0  0
 15 16  1  0  0  0  0
 15 17  1  0  0  0  0
 18  2  1  0  0  0  0
 18 23  2  0  0  0  0
 19  1  1  0  0  0  0
 19 18  1  0  0  0  0
 20 19  2  0  0  0  0
 21  3  1  0  0  0  0
 21 20  1  0  0  0  0
 22 21  2  0  0  0  0
 22 23  1  0  0  0  0
M  END
>  <CHROM.1>
58.39734915,-91.52790427,-124.86809288,158.43305313,178.36459461,-46.55872222
32.79498490,-45.03792765,81.39132624,122.50454970,-108.94288088,-19.56521113
-7.87268761,8.68084603,2.02711967,-0.55321288,1.10639506

>  <Name>
1uui_lig

>  <RI>
0

>  <Rbt.Current_Directory>
/home/itssahil/PROJECTS/Mol_Feturizer/New_Systems/rnas/1uui

>  <Rbt.Executable>
rbdock ($Id: //depot/dev/client3/rdock/2013.1/src/exe/rbdock.cxx#4 $)

>  <Rbt.Library>
libRbt.so (2013.1, Build901 2013/11/27)

>  <Rbt.Parameter_File>
/export/apps/rDock/src/rDock_2013.1_src/data/scripts/dock_solv.prm

>  <Rbt.Receptor>
prm/blind_docking_80.prm

>  <SCORE>
-20.5199

>  <SCORE.INTER>
-19.1183

>  <SCORE.INTER.CONST>
1

>  <SCORE.INTER.POLAR>
-2.82588

>  <SCORE.INTER.ROT>
10

>  <SCORE.INTER.SOLV>
6.09497

>  <SCORE.INTER.VDW>
-15.6242

>  <SCORE.INTER.norm>
-0.831229

>  <SCORE.INTRA>
-1.61921

>  <SCORE.INTRA.DIHEDRAL>
-1.9253

>  <SCORE.INTRA.DIHEDRAL.0>
23.4151

>  <SCORE.INTRA.POLAR>
0

>  <SCORE.INTRA.POLAR.0>
0

>  <SCORE.INTRA.REPUL>
0

>  <SCORE.INTRA.REPUL.0>
0

>  <SCORE.INTRA.SOLV>
0.348802

>  <SCORE.INTRA.SOLV.lig_0>
-17.3568

>  <SCORE.INTRA.VDW>
-0.830961

>  <SCORE.INTRA.VDW.0>
1.0768

>  <SCORE.INTRA.norm>
-0.0704003

>  <SCORE.RESTR>
0.217592

>  <SCORE.RESTR.CAVITY>
0.217592

>  <SCORE.RESTR.norm>
0.00946052

>  <SCORE.SYSTEM>
0

>  <SCORE.SYSTEM.CONST>
0

>  <SCORE.SYSTEM.DIHEDRAL>
0

>  <SCORE.SYSTEM.SOLV>
0

>  <SCORE.SYSTEM.norm>
0

>  <SCORE.heavy>
23

>  <SCORE.norm>
-0.892168

>  <RMSD>
14.105

$$$$
1uui_lig
 OpenBabel11021811413D
libRbt.so/2013.1/901 2013/11/27
 23 24  0  0  0  0  0  0  0  0999 V2000
  -20.8643   -6.3260    7.9619 C   0  0  0  0  0  0  0  0  0  0  0  0
  -20.8883   -7.7084    5.4046 O   0  0  0  0  0  0  0  0  0  0  0  0
  -16.1614   -8.0493    8.5739 O   0  0  0  0  0  0  0  0  0  0  0  0
  -21.4865   -9.0038    5.2701 C   0  0  0  0  0  0  0  0  0  0  0  0
  -16.1707   -9.2693    9.3194 C   0  0  0  0  0  0  0  0  0  0  0  0
  -21.0303   -6.5063    9.4416 N   0  0  0  0  0  0  0  0  0  0  0  0
  -22.1866   -9.0925    3.9132 C   0  0  0  0  0  0  0  0  0  0  0  0
  -22.4671   -6.4910    9.8291 C   0  0  0  0  0  0  0  0  0  0  0  0
  -20.3035   -5.4474   10.1906 C   0  0  0  0  0  0  0  0  0  0  0  0
  -21.1624   -8.9385    2.7844 C   0  0  0  0  0  0  0  0  0  0  0  0
  -23.1451   -5.1576    9.4711 C   0  0  0  0  0  0  0  0  0  0  0  0
  -20.8131   -4.0428    9.8252 C   0  0  0  0  0  0  0  0  0  0  0  0
  -20.2327  -10.0900    2.8005 N   0  0  0  0  0  0  0  0  0  0  0  0
  -22.1489   -4.0870    9.1530 N   0  0  0  0  0  0  0  0  0  0  0  0
  -22.5682   -2.9711    8.4049 C   0  0  0  0  0  0  0  0  0  0  0  0
  -23.5198   -3.0984    7.4369 N   0  0  0  0  0  0  0  0  0  0  0  0
  -21.9392   -1.7684    8.5371 N   0  0  0  0  0  0  0  0  0  0  0  0
  -19.7048   -7.7957    6.2033 C   0  0  0  0  0  0  0  0  0  0  0  0
  -19.6458   -7.1357    7.4611 C   0  0  0  0  0  0  0  0  0  0  0  0
  -18.4650   -7.2216    8.2498 C   0  0  0  0  0  0  0  0  0  0  0  0
  -17.3485   -7.9656    7.7803 C   0  0  0  0  0  0  0  0  0  0  0  0
  -17.4109   -8.6246    6.5245 C   0  0  0  0  0  0  0  0  0  0  0  0
  -18.5884   -8.5386    5.7359 C   0  0  0  0  0  0  0  0  0  0  0  0
  2  4  1  0  0  0  0
  3  5  1  0  0  0  0
  4  7  1  0  0  0  0
  6  1  1  0  0  0  0
  7 10  1  0  0  0  0
  8  6  1  0  0  0  0
  8 11  1  0  0  0  0
  9  6  1  0  0  0  0
 10 13  1  0  0  0  0
 11 14  1  0  0  0  0
 12  9  1  0  0  0  0
 14 12  1  0  0  0  0
 14 15  1  0  0  0  0
 15 16  1  0  0  0  0
 15 17  1  0  0  0  0
 18  2  1  0  0  0  0
 18 23  2  0  0  0  0
 19  1  1  0  0  0  0
 19 18  1  0  0  0  0
 20 19  2  0  0  0  0
 21  3  1  0  0  0  0
 21 20  1  0  0  0  0
 22 21  2  0  0  0  0
 22 23  1  0  0  0  0
M  END
>  <CHROM.1>
-148.68707626,62.32701626,-146.03511406,65.59155532,-179.85411344,-33.64385206
-29.05233834,128.00614915,-115.37794192,141.93615838,97.21043673,-20.39161466
-6.73766623,7.38065938,-2.08317208,0.55302676,-2.23398908

>  <Name>
1uui_lig

>  <RI>
0

>  <Rbt.Current_Directory>
/home/itssahil/PROJECTS/Mol_Feturizer/New_Systems/rnas/1uui

>  <Rbt.Executable>
rbdock ($Id: //depot/dev/client3/rdock/2013.1/src/exe/rbdock.cxx#4 $)

>  <Rbt.Library>
libRbt.so (2013.1, Build901 2013/11/27)

>  <Rbt.Parameter_File>
/export/apps/rDock/src/rDock_2013.1_src/data/scripts/dock_solv.prm

>  <Rbt.Receptor>
prm/blind_docking_60.prm

>  <SCORE>
-21.3043

>  <SCORE.INTER>
-17.7961

>  <SCORE.INTER.CONST>
1

>  <SCORE.INTER.POLAR>
-2.07371

>  <SCORE.INTER.ROT>
10

>  <SCORE.INTER.SOLV>
5.04209

>  <SCORE.INTER.VDW>
-16.899

>  <SCORE.INTER.norm>
-0.773742

>  <SCORE.INTRA>
-3.50819

>  <SCORE.INTRA.DIHEDRAL>
-4.2697

>  <SCORE.INTRA.DIHEDRAL.0>
23.4151

>  <SCORE.INTRA.POLAR>
0

>  <SCORE.INTRA.POLAR.0>
0

>  <SCORE.INTRA.REPUL>
0

>  <SCORE.INTRA.REPUL.0>
0

>  <SCORE.INTRA.SOLV>
0.369461

>  <SCORE.INTRA.SOLV.lig_0>
-17.3568

>  <SCORE.INTRA.VDW>
-1.55807

>  <SCORE.INTRA.VDW.0>
1.0768

>  <SCORE.INTRA.norm>
-0.15253

>  <SCORE.RESTR>
0

>  <SCORE.RESTR.CAVITY>
0

>  <SCORE.RESTR.norm>
0

>  <SCORE.SYSTEM>
0

>  <SCORE.SYSTEM.CONST>
0

>  <SCORE.SYSTEM.DIHEDRAL>
0

>  <SCORE.SYSTEM.SOLV>
0

>  <SCORE.SYSTEM.norm>
0

>  <SCORE.heavy>
23

>  <SCORE.norm>
-0.926272

>  <RMSD>
14.115

$$$$
1uui_lig
 OpenBabel11021811413D
libRbt.so/2013.1/901 2013/11/27
 23 24  0  0  0  0  0  0  0  0999 V2000
  -19.2433   -6.7943    9.3384 C   0  0  0  0  0  0  0  0  0  0  0  0
  -16.5768   -7.9472    9.4479 O   0  0  0  0  0  0  0  0  0  0  0  0
  -19.8903   -9.3128    5.0140 O   0  0  0  0  0  0  0  0  0  0  0  0
  -16.9588   -8.7139   10.5969 C   0  0  0  0  0  0  0  0  0  0  0  0
  -21.1451   -9.8042    5.4914 C   0  0  0  0  0  0  0  0  0  0  0  0
  -19.8857   -5.5904    8.7161 N   0  0  0  0  0  0  0  0  0  0  0  0
  -16.0838   -8.3063   11.7833 C   0  0  0  0  0  0  0  0  0  0  0  0
  -19.7250   -4.3874    9.5774 C   0  0  0  0  0  0  0  0  0  0  0  0
  -21.3312   -5.8302    8.4642 C   0  0  0  0  0  0  0  0  0  0  0  0
  -16.4440   -9.1466   13.0127 C   0  0  0  0  0  0  0  0  0  0  0  0
  -20.3845   -4.5738   10.9545 C   0  0  0  0  0  0  0  0  0  0  0  0
  -22.0880   -6.1511    9.7644 C   0  0  0  0  0  0  0  0  0  0  0  0
  -15.2090   -9.5027   13.7465 N   0  0  0  0  0  0  0  0  0  0  0  0
  -21.3147   -5.7459   10.9793 N   0  0  0  0  0  0  0  0  0  0  0  0
  -21.6556   -6.3150   12.2204 C   0  0  0  0  0  0  0  0  0  0  0  0
  -20.7837   -6.2768   13.2679 N   0  0  0  0  0  0  0  0  0  0  0  0
  -22.8058   -7.0331   12.3644 N   0  0  0  0  0  0  0  0  0  0  0  0
  -17.4085   -8.2853    8.3344 C   0  0  0  0  0  0  0  0  0  0  0  0
  -18.7206   -7.7466    8.2379 C   0  0  0  0  0  0  0  0  0  0  0  0
  -19.5459   -8.0893    7.1309 C   0  0  0  0  0  0  0  0  0  0  0  0
  -19.0584   -8.9678    6.1254 C   0  0  0  0  0  0  0  0  0  0  0  0
  -17.7473   -9.5032    6.2240 C   0  0  0  0  0  0  0  0  0  0  0  0
  -16.9233   -9.1627    7.3288 C   0  0  0  0  0  0  0  0  0  0  0  0
  2  4  1  0  0  0  0
  3  5  1  0  0  0  0
  4  7  1  0  0  0  0
  6  1  1  0  0  0  0
  7 10  1  0  0  0  0
  8  6  1  0  0  0  0
  8 11  1  0  0  0  0
  9  6  1  0  0  0  0
 10 13  1  0  0  0  0
 11 14  1  0  0  0  0
 12  9  1  0  0  0  0
 14 12  1  0  0  0  0
 14 15  1  0  0  0  0
 15 16  1  0  0  0  0
 15 17  1  0  0  0  0
 18  2  1  0  0  0  0
 18 23  2  0  0  0  0
 19  1  1  0  0  0  0
 19 18  1  0  0  0  0
 20 19  2  0  0  0  0
 21  3  1  0  0  0  0
 21 20  1  0  0  0  0
 22 21  2  0  0  0  0
 22 23  1  0  0  0  0
M  END
>  <CHROM.1>
-178.36889864,-178.15299838,-148.79502597,140.51874167,104.83061954,-29.85329709
-114.22971684,77.08802791,78.64830636,133.10561530,-53.00530178,-19.17668790
-7.52963891,9.57429644,1.54281966,0.53049342,-1.85811679

>  <Name>
1uui_lig

>  <RI>
0

>  <Rbt.Current_Directory>
/home/itssahil/PROJECTS/Mol_Feturizer/New_Systems/rnas/1uui

>  <Rbt.Executable>
rbdock ($Id: //depot/dev/client3/rdock/2013.1/src/exe/rbdock.cxx#4 $)

>  <Rbt.Library>
libRbt.so (2013.1, Build901 2013/11/27)

>  <Rbt.Parameter_File>
/export/apps/rDock/src/rDock_2013.1_src/data/scripts/dock_solv.prm

>  <Rbt.Receptor>
prm/blind_docking_80.prm

>  <SCORE>
-28.9382

>  <SCORE.INTER>
-28.3261

>  <SCORE.INTER.CONST>
1

>  <SCORE.INTER.POLAR>
-3.74988

>  <SCORE.INTER.ROT>
10

>  <SCORE.INTER.SOLV>
8.11453

>  <SCORE.INTER.VDW>
-19.3559

>  <SCORE.INTER.norm>
-1.23157

>  <SCORE.INTRA>
-1.31621

>  <SCORE.INTRA.DIHEDRAL>
-2.32917

>  <SCORE.INTRA.DIHEDRAL.0>
23.4151

>  <SCORE.INTRA.POLAR>
0

>  <SCORE.INTRA.POLAR.0>
0

>  <SCORE.INTRA.REPUL>
0

>  <SCORE.INTRA.REPUL.0>
0

>  <SCORE.INTRA.SOLV>
-0.0959868

>  <SCORE.INTRA.SOLV.lig_0>
-17.3568

>  <SCORE.INTRA.VDW>
-0.103634

>  <SCORE.INTRA.VDW.0>
1.0768

>  <SCORE.INTRA.norm>
-0.0572266

>  <SCORE.RESTR>
0.70411

>  <SCORE.RESTR.CAVITY>
0.70411

>  <SCORE.RESTR.norm>
0.0306135

>  <SCORE.SYSTEM>
0

>  <SCORE.SYSTEM.CONST>
0

>  <SCORE.SYSTEM.DIHEDRAL>
0

>  <SCORE.SYSTEM.SOLV>
0

>  <SCORE.SYSTEM.norm>
0

>  <SCORE.heavy>
23

>  <SCORE.norm>
-1.25818

>  <RMSD>
14.115

$$$$
1uui_lig
 OpenBabel11021811413D
libRbt.so/2013.1/901 2013/11/27
 23 24  0  0  0  0  0  0  0  0999 V2000
  -20.1428   -7.2508    8.9977 C   0  0  0  0  0  0  0  0  0  0  0  0
  -17.3136   -7.8754    9.2360 O   0  0  0  0  0  0  0  0  0  0  0  0
  -19.8672   -8.9418    4.2515 O   0  0  0  0  0  0  0  0  0  0  0  0
  -16.8819   -9.1040    9.8344 C   0  0  0  0  0  0  0  0  0  0  0  0
  -20.4496  -10.2471    4.2859 C   0  0  0  0  0  0  0  0  0  0  0  0
  -20.2774   -5.7667    8.8272 N   0  0  0  0  0  0  0  0  0  0  0  0
  -15.8207   -8.7987   10.8927 C   0  0  0  0  0  0  0  0  0  0  0  0
  -19.6421   -5.0342    9.9562 C   0  0  0  0  0  0  0  0  0  0  0  0
  -21.7069   -5.3717    8.7218 C   0  0  0  0  0  0  0  0  0  0  0  0
  -16.4688   -8.7282   12.2791 C   0  0  0  0  0  0  0  0  0  0  0  0
  -20.2930   -5.3814   11.3059 C   0  0  0  0  0  0  0  0  0  0  0  0
  -22.5015   -5.7778    9.9748 C   0  0  0  0  0  0  0  0  0  0  0  0
  -15.4308   -8.4470   13.2958 N   0  0  0  0  0  0  0  0  0  0  0  0
  -21.6060   -6.0788   11.1349 N   0  0  0  0  0  0  0  0  0  0  0  0
  -22.1159   -6.8367   12.2055 C   0  0  0  0  0  0  0  0  0  0  0  0
  -23.3998   -7.2951   12.1859 N   0  0  0  0  0  0  0  0  0  0  0  0
  -21.3845   -7.0152   13.3425 N   0  0  0  0  0  0  0  0  0  0  0  0
  -17.9555   -8.1385    7.9851 C   0  0  0  0  0  0  0  0  0  0  0  0
  -19.3380   -7.8502    7.8212 C   0  0  0  0  0  0  0  0  0  0  0  0
  -19.9732   -8.1178    6.5767 C   0  0  0  0  0  0  0  0  0  0  0  0
  -19.2264   -8.6717    5.5015 C   0  0  0  0  0  0  0  0  0  0  0  0
  -17.8458   -8.9573    5.6679 C   0  0  0  0  0  0  0  0  0  0  0  0
  -17.2111   -8.6917    6.9098 C   0  0  0  0  0  0  0  0  0  0  0  0
  2  4  1  0  0  0  0
  3  5  1  0  0  0  0
  4  7  1  0  0  0  0
  6  1  1  0  0  0  0
  7 10  1  0  0  0  0
  8  6  1  0  0  0  0
  8 11  1  0  0  0  0
  9  6  1  0  0  0  0
 10 13  1  0  0  0  0
 11 14  1  0  0  0  0
 12  9  1  0  0  0  0
 14 12  1  0  0  0  0
 14 15  1  0  0  0  0
 15 16  1  0  0  0  0
 15 17  1  0  0  0  0
 18  2  1  0  0  0  0
 18 23  2  0  0  0  0
 19  1  1  0  0  0  0
 19 18  1  0  0  0  0
 20 19  2  0  0  0  0
 21  3  1  0  0  0  0
 21 20  1  0  0  0  0
 22 21  2  0  0  0  0
 22 23  1  0  0  0  0
M  END
>  <CHROM.1>
161.34110226,96.41633342,-118.76318184,179.39550992,-175.43845045,168.57939075
-52.93421094,-24.31389199,114.98312790,99.19414485,-86.97196562,-19.43347915
-7.57825380,9.27539123,1.33446567,0.38933658,-1.80575157

>  <Name>
1uui_lig

>  <RI>
0

>  <Rbt.Current_Directory>
/home/itssahil/PROJECTS/Mol_Feturizer/New_Systems/rnas/1uui

>  <Rbt.Executable>
rbdock ($Id: //depot/dev/client3/rdock/2013.1/src/exe/rbdock.cxx#4 $)

>  <Rbt.Library>
libRbt.so (2013.1, Build901 2013/11/27)

>  <Rbt.Parameter_File>
/export/apps/rDock/src/rDock_2013.1_src/data/scripts/dock_solv.prm

>  <Rbt.Receptor>
prm/blind_docking_100.prm

>  <SCORE>
-27.2348

>  <SCORE.INTER>
-24.7288

>  <SCORE.INTER.CONST>
1

>  <SCORE.INTER.POLAR>
-2.62445

>  <SCORE.INTER.ROT>
10

>  <SCORE.INTER.SOLV>
7.24746

>  <SCORE.INTER.VDW>
-20.4202

>  <SCORE.INTER.norm>
-1.07516

>  <SCORE.INTRA>
-2.51003

>  <SCORE.INTRA.DIHEDRAL>
-1.49778

>  <SCORE.INTRA.DIHEDRAL.0>
23.4151

>  <SCORE.INTRA.POLAR>
0

>  <SCORE.INTRA.POLAR.0>
0

>  <SCORE.INTRA.REPUL>
0

>  <SCORE.INTRA.REPUL.0>
0

>  <SCORE.INTRA.SOLV>
0.0131805

>  <SCORE.INTRA.SOLV.lig_0>
-17.3568

>  <SCORE.INTRA.VDW>
-1.76773

>  <SCORE.INTRA.VDW.0>
1.0768

>  <SCORE.INTRA.norm>
-0.109132

>  <SCORE.RESTR>
0.00398563

>  <SCORE.RESTR.CAVITY>
0.00398563

>  <SCORE.RESTR.norm>
0.000173288

>  <SCORE.SYSTEM>
0

>  <SCORE.SYSTEM.CONST>
0

>  <SCORE.SYSTEM.DIHEDRAL>
0

>  <SCORE.SYSTEM.SOLV>
0

>  <SCORE.SYSTEM.norm>
0

>  <SCORE.heavy>
23

>  <SCORE.norm>
-1.18412

>  <RMSD>
14.116

$$$$
1uui_lig
 OpenBabel11021811413D
libRbt.so/2013.1/901 2013/11/27
 23 24  0  0  0  0  0  0  0  0999 V2000
  -19.4905   -6.9622    9.4454 C   0  0  0  0  0  0  0  0  0  0  0  0
  -18.0949   -7.9747    7.1048 O   0  0  0  0  0  0  0  0  0  0  0  0
  -15.4888   -8.4104   12.1568 O   0  0  0  0  0  0  0  0  0  0  0  0
  -18.2822   -9.2754    6.5329 C   0  0  0  0  0  0  0  0  0  0  0  0
  -16.2439   -9.2706   13.0135 C   0  0  0  0  0  0  0  0  0  0  0  0
  -20.2432   -7.1624   10.7271 N   0  0  0  0  0  0  0  0  0  0  0  0
  -18.0671   -9.1924    5.0209 C   0  0  0  0  0  0  0  0  0  0  0  0
  -21.7004   -7.3315   10.4762 C   0  0  0  0  0  0  0  0  0  0  0  0
  -20.0290   -6.0191   11.6531 C   0  0  0  0  0  0  0  0  0  0  0  0
  -18.9476   -8.0886    4.4266 C   0  0  0  0  0  0  0  0  0  0  0  0
  -22.3139   -6.0960    9.7958 C   0  0  0  0  0  0  0  0  0  0  0  0
  -20.4963   -4.6914   11.0327 C   0  0  0  0  0  0  0  0  0  0  0  0
  -18.2381   -6.7924    4.5096 N   0  0  0  0  0  0  0  0  0  0  0  0
  -21.4085   -4.9065    9.8665 N   0  0  0  0  0  0  0  0  0  0  0  0
  -21.5994   -3.8535    8.9525 C   0  0  0  0  0  0  0  0  0  0  0  0
  -22.8118   -3.6549    8.3613 N   0  0  0  0  0  0  0  0  0  0  0  0
  -20.5464   -3.0936    8.5362 N   0  0  0  0  0  0  0  0  0  0  0  0
  -17.4446   -8.0865    8.3740 C   0  0  0  0  0  0  0  0  0  0  0  0
  -18.0876   -7.6047    9.5469 C   0  0  0  0  0  0  0  0  0  0  0  0
  -17.4350   -7.7139   10.8063 C   0  0  0  0  0  0  0  0  0  0  0  0
  -16.1442   -8.3031   10.8899 C   0  0  0  0  0  0  0  0  0  0  0  0
  -15.5053   -8.7844    9.7171 C   0  0  0  0  0  0  0  0  0  0  0  0
  -16.1551   -8.6749    8.4595 C   0  0  0  0  0  0  0  0  0  0  0  0
  2  4  1  0  0  0  0
  3  5  1  0  0  0  0
  4  7  1  0  0  0  0
  6  1  1  0  0  0  0
  7 10  1  0  0  0  0
  8  6  1  0  0  0  0
  8 11  1  0  0  0  0
  9  6  1  0  0  0  0
 10 13  1  0  0  0  0
 11 14  1  0  0  0  0
 12  9  1  0  0  0  0
 14 12  1  0  0  0  0
 14 15  1  0  0  0  0
 15 16  1  0  0  0  0
 15 17  1  0  0  0  0
 18  2  1  0  0  0  0
 18 23  2  0  0  0  0
 19  1  1  0  0  0  0
 19 18  1  0  0  0  0
 20 19  2  0  0  0  0
 21  3  1  0  0  0  0
 21 20  1  0  0  0  0
 22 21  2  0  0  0  0
 22 23  1  0  0  0  0
M  END
>  <CHROM.1>
-142.60952509,-52.90793319,-146.23102330,86.47246843,-161.18850925,23.78788343
-67.64951799,-42.07381805,-119.96026704,151.47119691,63.71771595,-18.94531463
-6.99239116,9.06286105,-3.11384481,0.68047950,-1.67957716

>  <Name>
1uui_lig

>  <RI>
0

>  <Rbt.Current_Directory>
/home/itssahil/PROJECTS/Mol_Feturizer/New_Systems/rnas/1uui

>  <Rbt.Executable>
rbdock ($Id: //depot/dev/client3/rdock/2013.1/src/exe/rbdock.cxx#4 $)

>  <Rbt.Library>
libRbt.so (2013.1, Build901 2013/11/27)

>  <Rbt.Parameter_File>
/export/apps/rDock/src/rDock_2013.1_src/data/scripts/dock_solv.prm

>  <Rbt.Receptor>
prm/blind_docking_100.prm

>  <SCORE>
-20.9242

>  <SCORE.INTER>
-18.4236

>  <SCORE.INTER.CONST>
1

>  <SCORE.INTER.POLAR>
-1.571

>  <SCORE.INTER.ROT>
10

>  <SCORE.INTER.SOLV>
6.32844

>  <SCORE.INTER.VDW>
-19.4219

>  <SCORE.INTER.norm>
-0.801027

>  <SCORE.INTRA>
-2.71965

>  <SCORE.INTRA.DIHEDRAL>
-1.46488

>  <SCORE.INTRA.DIHEDRAL.0>
23.4151

>  <SCORE.INTRA.POLAR>
-0.517741

>  <SCORE.INTRA.POLAR.0>
0

>  <SCORE.INTRA.REPUL>
0

>  <SCORE.INTRA.REPUL.0>
0

>  <SCORE.INTRA.SOLV>
0.395718

>  <SCORE.INTRA.SOLV.lig_0>
-17.3568

>  <SCORE.INTRA.VDW>
-0.424745

>  <SCORE.INTRA.VDW.0>
1.0768

>  <SCORE.INTRA.norm>
-0.118245

>  <SCORE.RESTR>
0.219101

>  <SCORE.RESTR.CAVITY>
0.219101

>  <SCORE.RESTR.norm>
0.00952613

>  <SCORE.SYSTEM>
0

>  <SCORE.SYSTEM.CONST>
0

>  <SCORE.SYSTEM.DIHEDRAL>
0

>  <SCORE.SYSTEM.SOLV>
0

>  <SCORE.SYSTEM.norm>
0

>  <SCORE.heavy>
23

>  <SCORE.norm>
-0.909746

>  <RMSD>
14.128

$$$$
1uui_lig
 OpenBabel11021811413D
libRbt.so/2013.1/901 2013/11/27
 23 24  0  0  0  0  0  0  0  0999 V2000
  -20.5952   -6.8542    8.0737 C   0  0  0  0  0  0  0  0  0  0  0  0
  -19.2289   -9.3785    7.6122 O   0  0  0  0  0  0  0  0  0  0  0  0
  -23.4799   -7.9656    4.0856 O   0  0  0  0  0  0  0  0  0  0  0  0
  -18.0132   -9.5534    6.8737 C   0  0  0  0  0  0  0  0  0  0  0  0
  -23.0085   -7.9833    2.7360 C   0  0  0  0  0  0  0  0  0  0  0  0
  -21.1956   -7.3400    9.3594 N   0  0  0  0  0  0  0  0  0  0  0  0
  -16.8318   -9.1308    7.7482 C   0  0  0  0  0  0  0  0  0  0  0  0
  -22.5985   -6.8676    9.5121 C   0  0  0  0  0  0  0  0  0  0  0  0
  -20.3908   -6.8889   10.5253 C   0  0  0  0  0  0  0  0  0  0  0  0
  -17.0297   -9.6424    9.1786 C   0  0  0  0  0  0  0  0  0  0  0  0
  -22.6886   -5.3323    9.5387 C   0  0  0  0  0  0  0  0  0  0  0  0
  -20.3029   -5.3548   10.5944 C   0  0  0  0  0  0  0  0  0  0  0  0
  -15.9017   -9.1925   10.0246 N   0  0  0  0  0  0  0  0  0  0  0  0
  -21.3532   -4.6937    9.7588 N   0  0  0  0  0  0  0  0  0  0  0  0
  -21.1754   -3.3481    9.3870 C   0  0  0  0  0  0  0  0  0  0  0  0
  -22.1564   -2.6728    8.7232 N   0  0  0  0  0  0  0  0  0  0  0  0
  -19.9720   -2.7309    9.5615 N   0  0  0  0  0  0  0  0  0  0  0  0
  -20.2933   -9.0201    6.7263 C   0  0  0  0  0  0  0  0  0  0  0  0
  -20.9914   -7.7957    6.9128 C   0  0  0  0  0  0  0  0  0  0  0  0
  -22.0522   -7.4456    6.0319 C   0  0  0  0  0  0  0  0  0  0  0  0
  -22.4117   -8.3184    4.9692 C   0  0  0  0  0  0  0  0  0  0  0  0
  -21.7119   -9.5397    4.7849 C   0  0  0  0  0  0  0  0  0  0  0  0
  -20.6538   -9.8906    5.6640 C   0  0  0  0  0  0  0  0  0  0  0  0
  2  4  1  0  0  0  0
  3  5  1  0  0  0  0
  4  7  1  0  0  0  0
  6  1  1  0  0  0  0
  7 10  1  0  0  0  0
  8  6  1  0  0  0  0
  8 11  1  0  0  0  0
  9  6  1  0  0  0  0
 10 13  1  0  0  0  0
 11 14  1  0  0  0  0
 12  9  1  0  0  0  0
 14 12  1  0  0  0  0
 14 15  1  0  0  0  0
 15 16  1  0  0  0  0
 15 17  1  0  0  0  0
 18  2  1  0  0  0  0
 18 23  2  0  0  0  0
 19  1  1  0  0  0  0
 19 18  1  0  0  0  0
 20 19  2  0  0  0  0
 21  3  1  0  0  0  0
 21 20  1  0  0  0  0
 22 21  2  0  0  0  0
 22 23  1  0  0  0  0
M  END
>  <CHROM.1>
147.36235367,41.84337802,-83.71200858,-178.28370022,136.08723961,-6.16862893
-54.95299311,4.31029716,-120.90951652,-80.04575153,124.55685776,-20.56630724
-7.21490567,7.80528652,1.61665208,-0.63177289,0.76256372

>  <Name>
1uui_lig

>  <RI>
0

>  <Rbt.Current_Directory>
/home/itssahil/PROJECTS/Mol_Feturizer/New_Systems/rnas/1uui

>  <Rbt.Executable>
rbdock ($Id: //depot/dev/client3/rdock/2013.1/src/exe/rbdock.cxx#4 $)

>  <Rbt.Library>
libRbt.so (2013.1, Build901 2013/11/27)

>  <Rbt.Parameter_File>
/export/apps/rDock/src/rDock_2013.1_src/data/scripts/dock_solv.prm

>  <Rbt.Receptor>
prm/blind_docking_60.prm

>  <SCORE>
-15.3152

>  <SCORE.INTER>
-15.1765

>  <SCORE.INTER.CONST>
1

>  <SCORE.INTER.POLAR>
-1.30037

>  <SCORE.INTER.ROT>
10

>  <SCORE.INTER.SOLV>
7.29338

>  <SCORE.INTER.VDW>
-18.4809

>  <SCORE.INTER.norm>
-0.65985

>  <SCORE.INTRA>
-0.319881

>  <SCORE.INTRA.DIHEDRAL>
-2.72613

>  <SCORE.INTRA.DIHEDRAL.0>
23.4151

>  <SCORE.INTRA.POLAR>
0

>  <SCORE.INTRA.POLAR.0>
0

>  <SCORE.INTRA.REPUL>
0

>  <SCORE.INTRA.REPUL.0>
0

>  <SCORE.INTRA.SOLV>
0.173579

>  <SCORE.INTRA.SOLV.lig_0>
-17.3568

>  <SCORE.INTRA.VDW>
0.956393

>  <SCORE.INTRA.VDW.0>
1.0768

>  <SCORE.INTRA.norm>
-0.0139079

>  <SCORE.RESTR>
0.181217

>  <SCORE.RESTR.CAVITY>
0.181217

>  <SCORE.RESTR.norm>
0.00787898

>  <SCORE.SYSTEM>
0

>  <SCORE.SYSTEM.CONST>
0

>  <SCORE.SYSTEM.DIHEDRAL>
0

>  <SCORE.SYSTEM.SOLV>
0

>  <SCORE.SYSTEM.norm>
0

>  <SCORE.heavy>
23

>  <SCORE.norm>
-0.665878

>  <RMSD>
14.132

$$$$
1uui_lig
 OpenBabel11021811413D
libRbt.so/2013.1/901 2013/11/27
 23 24  0  0  0  0  0  0  0  0999 V2000
  -20.1380   -8.0203    7.7164 C   0  0  0  0  0  0  0  0  0  0  0  0
  -18.2128   -8.0052    9.8946 O   0  0  0  0  0  0  0  0  0  0  0  0
  -22.1170   -3.8527    9.7601 O   0  0  0  0  0  0  0  0  0  0  0  0
  -17.2753   -7.8289    8.8250 C   0  0  0  0  0  0  0  0  0  0  0  0
  -21.7747   -2.9116    8.7397 C   0  0  0  0  0  0  0  0  0  0  0  0
  -20.1918   -7.3843    6.3591 N   0  0  0  0  0  0  0  0  0  0  0  0
  -16.3299   -9.0305    8.7859 C   0  0  0  0  0  0  0  0  0  0  0  0
  -21.1372   -8.1042    5.4632 C   0  0  0  0  0  0  0  0  0  0  0  0
  -18.8434   -7.3521    5.7338 C   0  0  0  0  0  0  0  0  0  0  0  0
  -15.1003   -8.7579    9.6582 C   0  0  0  0  0  0  0  0  0  0  0  0
  -20.7206   -9.5687    5.2450 C   0  0  0  0  0  0  0  0  0  0  0  0
  -18.2597   -8.7659    5.5708 C   0  0  0  0  0  0  0  0  0  0  0  0
  -15.4748   -8.8626   11.0863 N   0  0  0  0  0  0  0  0  0  0  0  0
  -19.3117   -9.8241    5.6803 N   0  0  0  0  0  0  0  0  0  0  0  0
  -18.9166  -11.1460    5.9577 C   0  0  0  0  0  0  0  0  0  0  0  0
  -19.5959  -12.2025    5.4274 N   0  0  0  0  0  0  0  0  0  0  0  0
  -17.9332  -11.4022    6.8670 N   0  0  0  0  0  0  0  0  0  0  0  0
  -19.1957   -6.9665    9.8609 C   0  0  0  0  0  0  0  0  0  0  0  0
  -20.1577   -6.9319    8.8146 C   0  0  0  0  0  0  0  0  0  0  0  0
  -21.1305   -5.8944    8.7828 C   0  0  0  0  0  0  0  0  0  0  0  0
  -21.1393   -4.8962    9.7947 C   0  0  0  0  0  0  0  0  0  0  0  0
  -20.1782   -4.9342   10.8389 C   0  0  0  0  0  0  0  0  0  0  0  0
  -19.2062   -5.9685   10.8711 C   0  0  0  0  0  0  0  0  0  0  0  0
  2  4  1  0  0  0  0
  3  5  1  0  0  0  0
  4  7  1  0  0  0  0
  6  1  1  0  0  0  0
  7 10  1  0  0  0  0
  8  6  1  0  0  0  0
  8 11  1  0  0  0  0
  9  6  1  0  0  0  0
 10 13  1  0  0  0  0
 11 14  1  0  0  0  0
 12  9  1  0  0  0  0
 14 12  1  0  0  0  0
 14 15  1  0  0  0  0
 15 16  1  0  0  0  0
 15 17  1  0  0  0  0
 18  2  1  0  0  0  0
 18 23  2  0  0  0  0
 19  1  1  0  0  0  0
 19 18  1  0  0  0  0
 20 19  2  0  0  0  0
 21  3  1  0  0  0  0
 21 20  1  0  0  0  0
 22 21  2  0  0  0  0
 22 23  1  0  0  0  0
M  END
>  <CHROM.1>
-173.78677521,-90.66100900,-136.55104113,74.31225238,-68.11094616,22.36317054
-123.04225870,94.39573315,69.80112659,-130.54536577,-74.81203996,-19.18996547
-7.82449776,8.06291924,1.13831030,0.62537763,-2.35512578

>  <Name>
1uui_lig

>  <RI>
0

>  <Rbt.Current_Directory>
/home/itssahil/PROJECTS/Mol_Feturizer/New_Systems/rnas/1uui

>  <Rbt.Executable>
rbdock ($Id: //depot/dev/client3/rdock/2013.1/src/exe/rbdock.cxx#4 $)

>  <Rbt.Library>
libRbt.so (2013.1, Build901 2013/11/27)

>  <Rbt.Parameter_File>
/export/apps/rDock/src/rDock_2013.1_src/data/scripts/dock_solv.prm

>  <Rbt.Receptor>
prm/blind_docking_80.prm

>  <SCORE>
-23.0134

>  <SCORE.INTER>
-19.0656

>  <SCORE.INTER.CONST>
1

>  <SCORE.INTER.POLAR>
-2.69862

>  <SCORE.INTER.ROT>
10

>  <SCORE.INTER.SOLV>
5.71709

>  <SCORE.INTER.VDW>
-15.8873

>  <SCORE.INTER.norm>
-0.828937

>  <SCORE.INTRA>
-4.1716

>  <SCORE.INTRA.DIHEDRAL>
-3.66478

>  <SCORE.INTRA.DIHEDRAL.0>
23.4151

>  <SCORE.INTRA.POLAR>
0

>  <SCORE.INTRA.POLAR.0>
0

>  <SCORE.INTRA.REPUL>
0

>  <SCORE.INTRA.REPUL.0>
0

>  <SCORE.INTRA.SOLV>
0.80149

>  <SCORE.INTRA.SOLV.lig_0>
-17.3568

>  <SCORE.INTRA.VDW>
-2.73996

>  <SCORE.INTRA.VDW.0>
1.0768

>  <SCORE.INTRA.norm>
-0.181374

>  <SCORE.RESTR>
0.223782

>  <SCORE.RESTR.CAVITY>
0.223782

>  <SCORE.RESTR.norm>
0.00972966

>  <SCORE.SYSTEM>
0

>  <SCORE.SYSTEM.CONST>
0

>  <SCORE.SYSTEM.DIHEDRAL>
0

>  <SCORE.SYSTEM.SOLV>
0

>  <SCORE.SYSTEM.norm>
0

>  <SCORE.heavy>
23

>  <SCORE.norm>
-1.00058

>  <RMSD>
14.137

$$$$
1uui_lig
 OpenBabel11021811413D
libRbt.so/2013.1/901 2013/11/27
 23 24  0  0  0  0  0  0  0  0999 V2000
  -19.3092   -6.5737    9.2353 C   0  0  0  0  0  0  0  0  0  0  0  0
  -17.5619   -7.5647    7.1338 O   0  0  0  0  0  0  0  0  0  0  0  0
  -16.2949   -8.9366   12.5205 O   0  0  0  0  0  0  0  0  0  0  0  0
  -17.6906   -8.7513    6.3404 C   0  0  0  0  0  0  0  0  0  0  0  0
  -15.6222   -7.8400   13.1443 C   0  0  0  0  0  0  0  0  0  0  0  0
  -20.4464   -7.4343    8.7711 N   0  0  0  0  0  0  0  0  0  0  0  0
  -18.5062   -8.4287    5.0874 C   0  0  0  0  0  0  0  0  0  0  0  0
  -20.8939   -7.0468    7.4057 C   0  0  0  0  0  0  0  0  0  0  0  0
  -21.5947   -7.3500    9.7118 C   0  0  0  0  0  0  0  0  0  0  0  0
  -19.1204   -9.7114    4.5177 C   0  0  0  0  0  0  0  0  0  0  0  0
  -21.3951   -5.5935    7.3557 C   0  0  0  0  0  0  0  0  0  0  0  0
  -22.1155   -5.9087    9.8433 C   0  0  0  0  0  0  0  0  0  0  0  0
  -19.9926   -9.3741    3.3706 N   0  0  0  0  0  0  0  0  0  0  0  0
  -21.6452   -5.0368    8.7222 N   0  0  0  0  0  0  0  0  0  0  0  0
  -21.6815   -3.6399    8.8892 C   0  0  0  0  0  0  0  0  0  0  0  0
  -22.1048   -2.8278    7.8791 N   0  0  0  0  0  0  0  0  0  0  0  0
  -21.1693   -3.0596   10.0119 N   0  0  0  0  0  0  0  0  0  0  0  0
  -17.2482   -7.9108    8.4858 C   0  0  0  0  0  0  0  0  0  0  0  0
  -18.0731   -7.4488    9.5475 C   0  0  0  0  0  0  0  0  0  0  0  0
  -17.7545   -7.7918   10.8908 C   0  0  0  0  0  0  0  0  0  0  0  0
  -16.6147   -8.5942   11.1689 C   0  0  0  0  0  0  0  0  0  0  0  0
  -15.7936   -9.0551   10.1065 C   0  0  0  0  0  0  0  0  0  0  0  0
  -16.1099   -8.7124    8.7655 C   0  0  0  0  0  0  0  0  0  0  0  0
  2  4  1  0  0  0  0
  3  5  1  0  0  0  0
  4  7  1  0  0  0  0
  6  1  1  0  0  0  0
  7 10  1  0  0  0  0
  8  6  1  0  0  0  0
  8 11  1  0  0  0  0
  9  6  1  0  0  0  0
 10 13  1  0  0  0  0
 11 14  1  0  0  0  0
 12  9  1  0  0  0  0
 14 12  1  0  0  0  0
 14 15  1  0  0  0  0
 15 16  1  0  0  0  0
 15 17  1  0  0  0  0
 18  2  1  0  0  0  0
 18 23  2  0  0  0  0
 19  1  1  0  0  0  0
 19 18  1  0  0  0  0
 20 19  2  0  0  0  0
 21  3  1  0  0  0  0
 21 20  1  0  0  0  0
 22 21  2  0  0  0  0
 22 23  1  0  0  0  0
M  END
>  <CHROM.1>
159.25906326,-157.97449947,-120.81663643,175.56253147,-167.16040845,30.41126745
107.10964043,21.78344952,-124.34976653,79.49935905,-80.34540316,-19.13158871
-7.12334471,8.59651165,2.98111870,0.70287274,-2.00525746

>  <Name>
1uui_lig

>  <RI>
0

>  <Rbt.Current_Directory>
/home/itssahil/PROJECTS/Mol_Feturizer/New_Systems/rnas/1uui

>  <Rbt.Executable>
rbdock ($Id: //depot/dev/client3/rdock/2013.1/src/exe/rbdock.cxx#4 $)

>  <Rbt.Library>
libRbt.so (2013.1, Build901 2013/11/27)

>  <Rbt.Parameter_File>
/export/apps/rDock/src/rDock_2013.1_src/data/scripts/dock_solv.prm

>  <Rbt.Receptor>
prm/blind_docking_80.prm

>  <SCORE>
-22.2665

>  <SCORE.INTER>
-17.882

>  <SCORE.INTER.CONST>
1

>  <SCORE.INTER.POLAR>
-1.81059

>  <SCORE.INTER.ROT>
10

>  <SCORE.INTER.SOLV>
5.42629

>  <SCORE.INTER.VDW>
-17.9614

>  <SCORE.INTER.norm>
-0.777478

>  <SCORE.INTRA>
-4.53348

>  <SCORE.INTRA.DIHEDRAL>
-3.62971

>  <SCORE.INTRA.DIHEDRAL.0>
23.4151

>  <SCORE.INTRA.POLAR>
0

>  <SCORE.INTRA.POLAR.0>
0

>  <SCORE.INTRA.REPUL>
0

>  <SCORE.INTRA.REPUL.0>
0

>  <SCORE.INTRA.SOLV>
0.132199

>  <SCORE.INTRA.SOLV.lig_0>
-17.3568

>  <SCORE.INTRA.VDW>
-2.78472

>  <SCORE.INTRA.VDW.0>
1.0768

>  <SCORE.INTRA.norm>
-0.197108

>  <SCORE.RESTR>
0.14896

>  <SCORE.RESTR.CAVITY>
0.14896

>  <SCORE.RESTR.norm>
0.00647652

>  <SCORE.SYSTEM>
0

>  <SCORE.SYSTEM.CONST>
0

>  <SCORE.SYSTEM.DIHEDRAL>
0

>  <SCORE.SYSTEM.SOLV>
0

>  <SCORE.SYSTEM.norm>
0

>  <SCORE.heavy>
23

>  <SCORE.norm>
-0.968109

>  <RMSD>
14.141

$$$$
1uui_lig
 OpenBabel11021811413D
libRbt.so/2013.1/901 2013/11/27
 23 24  0  0  0  0  0  0  0  0999 V2000
  -19.2350   -6.7700    8.9233 C   0  0  0  0  0  0  0  0  0  0  0  0
  -17.0865   -7.8783    7.3087 O   0  0  0  0  0  0  0  0  0  0  0  0
  -16.7836   -8.5394   12.9634 O   0  0  0  0  0  0  0  0  0  0  0  0
  -17.4486   -9.1169    6.6853 C   0  0  0  0  0  0  0  0  0  0  0  0
  -15.4271   -8.3853   13.3880 C   0  0  0  0  0  0  0  0  0  0  0  0
  -20.2465   -7.7507    8.4089 N   0  0  0  0  0  0  0  0  0  0  0  0
  -17.2600   -8.9892    5.1729 C   0  0  0  0  0  0  0  0  0  0  0  0
  -20.7658   -7.3408    7.0758 C   0  0  0  0  0  0  0  0  0  0  0  0
  -21.3801   -7.8929    9.3603 C   0  0  0  0  0  0  0  0  0  0  0  0
  -18.2860   -8.0073    4.5983 C   0  0  0  0  0  0  0  0  0  0  0  0
  -21.4680   -5.9733    7.1279 C   0  0  0  0  0  0  0  0  0  0  0  0
  -22.0972   -6.5521    9.5928 C   0  0  0  0  0  0  0  0  0  0  0  0
  -19.3893   -8.7616    3.9626 N   0  0  0  0  0  0  0  0  0  0  0  0
  -21.7725   -5.5498    8.5306 N   0  0  0  0  0  0  0  0  0  0  0  0
  -22.0031   -4.1864    8.7924 C   0  0  0  0  0  0  0  0  0  0  0  0
  -23.1741   -3.5939    8.4229 N   0  0  0  0  0  0  0  0  0  0  0  0
  -21.0124   -3.3974    9.2980 N   0  0  0  0  0  0  0  0  0  0  0  0
  -17.0146   -8.0463    8.7274 C   0  0  0  0  0  0  0  0  0  0  0  0
  -18.0416   -7.5209    9.5583 C   0  0  0  0  0  0  0  0  0  0  0  0
  -17.9635   -7.6865   10.9691 C   0  0  0  0  0  0  0  0  0  0  0  0
  -16.8614   -8.3754   11.5445 C   0  0  0  0  0  0  0  0  0  0  0  0
  -15.8381   -8.9000   10.7121 C   0  0  0  0  0  0  0  0  0  0  0  0
  -15.9144   -8.7344    9.3041 C   0  0  0  0  0  0  0  0  0  0  0  0
  2  4  1  0  0  0  0
  3  5  1  0  0  0  0
  4  7  1  0  0  0  0
  6  1  1  0  0  0  0
  7 10  1  0  0  0  0
  8  6  1  0  0  0  0
  8 11  1  0  0  0  0
  9  6  1  0  0  0  0
 10 13  1  0  0  0  0
 11 14  1  0  0  0  0
 12  9  1  0  0  0  0
 14 12  1  0  0  0  0
 14 15  1  0  0  0  0
 15 16  1  0  0  0  0
 15 17  1  0  0  0  0
 18  2  1  0  0  0  0
 18 23  2  0  0  0  0
 19  1  1  0  0  0  0
 19 18  1  0  0  0  0
 20 19  2  0  0  0  0
 21  3  1  0  0  0  0
 21 20  1  0  0  0  0
 22 21  2  0  0  0  0
 22 23  1  0  0  0  0
M  END
>  <CHROM.1>
-169.27606808,-67.95987552,-137.59744657,-101.47210937,171.82996474,74.38713626
174.14463266,33.51291297,-105.67082745,81.12167607,-141.25532464,-19.03225073
-7.27255854,8.66353865,2.79691250,0.61665213,-1.81402457

>  <Name>
1uui_lig

>  <RI>
0

>  <Rbt.Current_Directory>
/home/itssahil/PROJECTS/Mol_Feturizer/New_Systems/rnas/1uui

>  <Rbt.Executable>
rbdock ($Id: //depot/dev/client3/rdock/2013.1/src/exe/rbdock.cxx#4 $)

>  <Rbt.Library>
libRbt.so (2013.1, Build901 2013/11/27)

>  <Rbt.Parameter_File>
/export/apps/rDock/src/rDock_2013.1_src/data/scripts/dock_solv.prm

>  <Rbt.Receptor>
prm/blind_docking_100.prm

>  <SCORE>
-18.9527

>  <SCORE.INTER>
-16.0756

>  <SCORE.INTER.CONST>
1

>  <SCORE.INTER.POLAR>
-1.0465

>  <SCORE.INTER.ROT>
10

>  <SCORE.INTER.SOLV>
6.43496

>  <SCORE.INTER.VDW>
-19.6404

>  <SCORE.INTER.norm>
-0.698941

>  <SCORE.INTRA>
-3.58624

>  <SCORE.INTRA.DIHEDRAL>
-4.58892

>  <SCORE.INTRA.DIHEDRAL.0>
23.4151

>  <SCORE.INTRA.POLAR>
0

>  <SCORE.INTRA.POLAR.0>
0

>  <SCORE.INTRA.REPUL>
0

>  <SCORE.INTRA.REPUL.0>
0

>  <SCORE.INTRA.SOLV>
0.384676

>  <SCORE.INTRA.SOLV.lig_0>
-17.3568

>  <SCORE.INTRA.VDW>
-1.48411

>  <SCORE.INTRA.VDW.0>
1.0768

>  <SCORE.INTRA.norm>
-0.155923

>  <SCORE.RESTR>
0.70915

>  <SCORE.RESTR.CAVITY>
0.70915

>  <SCORE.RESTR.norm>
0.0308326

>  <SCORE.SYSTEM>
0

>  <SCORE.SYSTEM.CONST>
0

>  <SCORE.SYSTEM.DIHEDRAL>
0

>  <SCORE.SYSTEM.SOLV>
0

>  <SCORE.SYSTEM.norm>
0

>  <SCORE.heavy>
23

>  <SCORE.norm>
-0.824032

>  <RMSD>
14.169

$$$$
1uui_lig
 OpenBabel11021811413D
libRbt.so/2013.1/901 2013/11/27
 23 24  0  0  0  0  0  0  0  0999 V2000
  -19.6893   -7.4967    8.7394 C   0  0  0  0  0  0  0  0  0  0  0  0
  -18.7280   -9.3450    6.7118 O   0  0  0  0  0  0  0  0  0  0  0  0
  -15.3855   -8.3669   11.2257 O   0  0  0  0  0  0  0  0  0  0  0  0
  -18.2521   -8.6009    5.5831 C   0  0  0  0  0  0  0  0  0  0  0  0
  -16.0799   -8.7247   12.4232 C   0  0  0  0  0  0  0  0  0  0  0  0
  -19.5134   -6.0109    8.8446 N   0  0  0  0  0  0  0  0  0  0  0  0
  -18.7329   -7.1537    5.6998 C   0  0  0  0  0  0  0  0  0  0  0  0
  -19.3373   -5.5874   10.2603 C   0  0  0  0  0  0  0  0  0  0  0  0
  -20.6750   -5.2953    8.2538 C   0  0  0  0  0  0  0  0  0  0  0  0
  -18.4640   -6.4054    4.3903 C   0  0  0  0  0  0  0  0  0  0  0  0
  -20.5583   -5.9466   11.1241 C   0  0  0  0  0  0  0  0  0  0  0  0
  -21.9896   -5.6671    8.9609 C   0  0  0  0  0  0  0  0  0  0  0  0
  -17.0064   -6.2119    4.2223 N   0  0  0  0  0  0  0  0  0  0  0  0
  -21.7502   -6.3046   10.2930 N   0  0  0  0  0  0  0  0  0  0  0  0
  -22.7847   -7.0572   10.8796 C   0  0  0  0  0  0  0  0  0  0  0  0
  -23.8342   -7.5015   10.1312 N   0  0  0  0  0  0  0  0  0  0  0  0
  -22.8302   -7.2441   12.2296 N   0  0  0  0  0  0  0  0  0  0  0  0
  -17.8928   -9.1010    7.8471 C   0  0  0  0  0  0  0  0  0  0  0  0
  -18.3201   -8.2044    8.8643 C   0  0  0  0  0  0  0  0  0  0  0  0
  -17.4841   -7.9614    9.9894 C   0  0  0  0  0  0  0  0  0  0  0  0
  -16.2257   -8.6139   10.0946 C   0  0  0  0  0  0  0  0  0  0  0  0
  -15.8023   -9.5096    9.0779 C   0  0  0  0  0  0  0  0  0  0  0  0
  -16.6353   -9.7520    7.9541 C   0  0  0  0  0  0  0  0  0  0  0  0
  2  4  1  0  0  0  0
  3  5  1  0  0  0  0
  4  7  1  0  0  0  0
  6  1  1  0  0  0  0
  7 10  1  0  0  0  0
  8  6  1  0  0  0  0
  8 11  1  0  0  0  0
  9  6  1  0  0  0  0
 10 13  1  0  0  0  0
 11 14  1  0  0  0  0
 12  9  1  0  0  0  0
 14 12  1  0  0  0  0
 14 15  1  0  0  0  0
 15 16  1  0  0  0  0
 15 17  1  0  0  0  0
 18  2  1  0  0  0  0
 18 23  2  0  0  0  0
 19  1  1  0  0  0  0
 19 18  1  0  0  0  0
 20 19  2  0  0  0  0
 21  3  1  0  0  0  0
 21 20  1  0  0  0  0
 22 21  2  0  0  0  0
 22 23  1  0  0  0  0
M  END
>  <CHROM.1>
-80.25070156,-169.50244358,-78.39541542,-69.61212493,44.38298129,-174.43043010
74.07023394,107.39856070,101.66971139,-125.12086899,59.07259640,-19.08053132
-7.44919299,8.84904665,2.60291555,-0.38150601,1.72072051

>  <Name>
1uui_lig

>  <RI>
0

>  <Rbt.Current_Directory>
/home/itssahil/PROJECTS/Mol_Feturizer/New_Systems/rnas/1uui

>  <Rbt.Executable>
rbdock ($Id: //depot/dev/client3/rdock/2013.1/src/exe/rbdock.cxx#4 $)

>  <Rbt.Library>
libRbt.so (2013.1, Build901 2013/11/27)

>  <Rbt.Parameter_File>
/export/apps/rDock/src/rDock_2013.1_src/data/scripts/dock_solv.prm

>  <Rbt.Receptor>
prm/blind_docking_100.prm

>  <SCORE>
-35.5281

>  <SCORE.INTER>
-32.1921

>  <SCORE.INTER.CONST>
1

>  <SCORE.INTER.POLAR>
-3.6804

>  <SCORE.INTER.ROT>
10

>  <SCORE.INTER.SOLV>
8.65049

>  <SCORE.INTER.VDW>
-22.3435

>  <SCORE.INTER.norm>
-1.39965

>  <SCORE.INTRA>
-4.11578

>  <SCORE.INTRA.DIHEDRAL>
-6.89572

>  <SCORE.INTRA.DIHEDRAL.0>
23.4151

>  <SCORE.INTRA.POLAR>
0

>  <SCORE.INTRA.POLAR.0>
0

>  <SCORE.INTRA.REPUL>
0

>  <SCORE.INTRA.REPUL.0>
0

>  <SCORE.INTRA.SOLV>
0.056894

>  <SCORE.INTRA.SOLV.lig_0>
-17.3568

>  <SCORE.INTRA.VDW>
-0.69637

>  <SCORE.INTRA.VDW.0>
1.0768

>  <SCORE.INTRA.norm>
-0.178947

>  <SCORE.RESTR>
0.779751

>  <SCORE.RESTR.CAVITY>
0.779751

>  <SCORE.RESTR.norm>
0.0339022

>  <SCORE.SYSTEM>
0

>  <SCORE.SYSTEM.CONST>
0

>  <SCORE.SYSTEM.DIHEDRAL>
0

>  <SCORE.SYSTEM.SOLV>
0

>  <SCORE.SYSTEM.norm>
0

>  <SCORE.heavy>
23

>  <SCORE.norm>
-1.5447

>  <RMSD>
14.175

$$$$
1uui_lig
 OpenBabel11021811413D
libRbt.so/2013.1/901 2013/11/27
 23 24  0  0  0  0  0  0  0  0999 V2000
  -19.8687   -6.8058    6.2567 C   0  0  0  0  0  0  0  0  0  0  0  0
  -17.9406   -5.6082    8.0732 O   0  0  0  0  0  0  0  0  0  0  0  0
  -23.2801   -6.3153    9.9422 O   0  0  0  0  0  0  0  0  0  0  0  0
  -17.3755   -6.8710    7.6989 C   0  0  0  0  0  0  0  0  0  0  0  0
  -23.3091   -7.3476   10.9310 C   0  0  0  0  0  0  0  0  0  0  0  0
  -21.0438   -6.6606    5.3361 N   0  0  0  0  0  0  0  0  0  0  0  0
  -17.2886   -7.7661    8.9360 C   0  0  0  0  0  0  0  0  0  0  0  0
  -21.9695   -7.8196    5.4559 C   0  0  0  0  0  0  0  0  0  0  0  0
  -20.5987   -6.5255    3.9239 C   0  0  0  0  0  0  0  0  0  0  0  0
  -16.2343   -8.8565    8.7204 C   0  0  0  0  0  0  0  0  0  0  0  0
  -21.2828   -9.1449    5.0846 C   0  0  0  0  0  0  0  0  0  0  0  0
  -19.7872   -7.7492    3.4654 C   0  0  0  0  0  0  0  0  0  0  0  0
  -16.5218  -10.0041    9.6097 N   0  0  0  0  0  0  0  0  0  0  0  0
  -19.9880   -8.9263    4.3668 N   0  0  0  0  0  0  0  0  0  0  0  0
  -19.0425   -9.9684    4.3408 C   0  0  0  0  0  0  0  0  0  0  0  0
  -19.0159  -10.8600    3.3096 N   0  0  0  0  0  0  0  0  0  0  0  0
  -18.2224  -10.1909    5.4074 N   0  0  0  0  0  0  0  0  0  0  0  0
  -19.2800   -5.7902    8.5413 C   0  0  0  0  0  0  0  0  0  0  0  0
  -20.2581   -6.3710    7.6886 C   0  0  0  0  0  0  0  0  0  0  0  0
  -21.5900   -6.5458    8.1570 C   0  0  0  0  0  0  0  0  0  0  0  0
  -21.9400   -6.1405    9.4736 C   0  0  0  0  0  0  0  0  0  0  0  0
  -20.9607   -5.5619   10.3231 C   0  0  0  0  0  0  0  0  0  0  0  0
  -19.6314   -5.3860    9.8564 C   0  0  0  0  0  0  0  0  0  0  0  0
  2  4  1  0  0  0  0
  3  5  1  0  0  0  0
  4  7  1  0  0  0  0
  6  1  1  0  0  0  0
  7 10  1  0  0  0  0
  8  6  1  0  0  0  0
  8 11  1  0  0  0  0
  9  6  1  0  0  0  0
 10 13  1  0  0  0  0
 11 14  1  0  0  0  0
 12  9  1  0  0  0  0
 14 12  1  0  0  0  0
 14 15  1  0  0  0  0
 15 16  1  0  0  0  0
 15 17  1  0  0  0  0
 18  2  1  0  0  0  0
 18 23  2  0  0  0  0
 19  1  1  0  0  0  0
 19 18  1  0  0  0  0
 20 19  2  0  0  0  0
 21  3  1  0  0  0  0
 21 20  1  0  0  0  0
 22 21  2  0  0  0  0
 22 23  1  0  0  0  0
M  END
>  <CHROM.1>
-63.37507616,-158.00602998,-81.00039333,-156.87590517,-23.10198676,92.87414470
-99.60425587,-139.69845724,-59.20102394,-148.76448459,109.53069818,-19.80525193
-7.60551356,7.15050699,1.25934320,0.39998660,-1.95402486

>  <Name>
1uui_lig

>  <RI>
0

>  <Rbt.Current_Directory>
/home/itssahil/PROJECTS/Mol_Feturizer/New_Systems/rnas/1uui

>  <Rbt.Executable>
rbdock ($Id: //depot/dev/client3/rdock/2013.1/src/exe/rbdock.cxx#4 $)

>  <Rbt.Library>
libRbt.so (2013.1, Build901 2013/11/27)

>  <Rbt.Parameter_File>
/export/apps/rDock/src/rDock_2013.1_src/data/scripts/dock_solv.prm

>  <Rbt.Receptor>
prm/blind_docking_60.prm

>  <SCORE>
-24.4602

>  <SCORE.INTER>
-22.9956

>  <SCORE.INTER.CONST>
1

>  <SCORE.INTER.POLAR>
-3.04157

>  <SCORE.INTER.ROT>
10

>  <SCORE.INTER.SOLV>
5.46809

>  <SCORE.INTER.VDW>
-17.2812

>  <SCORE.INTER.norm>
-0.99981

>  <SCORE.INTRA>
-1.47939

>  <SCORE.INTRA.DIHEDRAL>
-4.22109

>  <SCORE.INTRA.DIHEDRAL.0>
23.4151

>  <SCORE.INTRA.POLAR>
0

>  <SCORE.INTRA.POLAR.0>
0

>  <SCORE.INTRA.REPUL>
0

>  <SCORE.INTRA.REPUL.0>
0

>  <SCORE.INTRA.SOLV>
0.133537

>  <SCORE.INTRA.SOLV.lig_0>
-17.3568

>  <SCORE.INTRA.VDW>
0.56439

>  <SCORE.INTRA.VDW.0>
1.0768

>  <SCORE.INTRA.norm>
-0.0643211

>  <SCORE.RESTR>
0.0148382

>  <SCORE.RESTR.CAVITY>
0.0148382

>  <SCORE.RESTR.norm>
0.000645141

>  <SCORE.SYSTEM>
0

>  <SCORE.SYSTEM.CONST>
0

>  <SCORE.SYSTEM.DIHEDRAL>
0

>  <SCORE.SYSTEM.SOLV>
0

>  <SCORE.SYSTEM.norm>
0

>  <SCORE.heavy>
23

>  <SCORE.norm>
-1.06349

>  <RMSD>
14.180

$$$$
1uui_lig
 OpenBabel11021811413D
libRbt.so/2013.1/901 2013/11/27
 23 24  0  0  0  0  0  0  0  0999 V2000
  -20.0684   -7.1338    8.8788 C   0  0  0  0  0  0  0  0  0  0  0  0
  -21.4050   -5.8734    6.6258 O   0  0  0  0  0  0  0  0  0  0  0  0
  -20.1834  -11.4282    6.2318 O   0  0  0  0  0  0  0  0  0  0  0  0
  -20.4332   -5.1085    5.9016 C   0  0  0  0  0  0  0  0  0  0  0  0
  -18.9748  -11.5969    5.4869 C   0  0  0  0  0  0  0  0  0  0  0  0
  -20.9705   -7.5173   10.0140 N   0  0  0  0  0  0  0  0  0  0  0  0
  -19.0975   -5.1657    6.6445 C   0  0  0  0  0  0  0  0  0  0  0  0
  -22.3968   -7.2509    9.6832 C   0  0  0  0  0  0  0  0  0  0  0  0
  -20.6041   -6.7844   11.2546 C   0  0  0  0  0  0  0  0  0  0  0  0
  -18.2627   -6.3433    6.1311 C   0  0  0  0  0  0  0  0  0  0  0  0
  -22.6536   -5.7604    9.4033 C   0  0  0  0  0  0  0  0  0  0  0  0
  -20.7047   -5.2613   11.0644 C   0  0  0  0  0  0  0  0  0  0  0  0
  -17.5160   -5.9293    4.9222 N   0  0  0  0  0  0  0  0  0  0  0  0
  -21.5210   -4.8977    9.8645 N   0  0  0  0  0  0  0  0  0  0  0  0
  -21.3844   -3.6082    9.3177 C   0  0  0  0  0  0  0  0  0  0  0  0
  -22.3263   -3.1078    8.4683 N   0  0  0  0  0  0  0  0  0  0  0  0
  -20.2457   -2.8848    9.5167 N   0  0  0  0  0  0  0  0  0  0  0  0
  -21.1010   -7.2679    6.5308 C   0  0  0  0  0  0  0  0  0  0  0  0
  -20.4472   -7.9277    7.6071 C   0  0  0  0  0  0  0  0  0  0  0  0
  -20.1428   -9.3138    7.5062 C   0  0  0  0  0  0  0  0  0  0  0  0
  -20.4919  -10.0351    6.3322 C   0  0  0  0  0  0  0  0  0  0  0  0
  -21.1458   -9.3737    5.2597 C   0  0  0  0  0  0  0  0  0  0  0  0
  -21.4491   -7.9902    5.3588 C   0  0  0  0  0  0  0  0  0  0  0  0
  2  4  1  0  0  0  0
  3  5  1  0  0  0  0
  4  7  1  0  0  0  0
  6  1  1  0  0  0  0
  7 10  1  0  0  0  0
  8  6  1  0  0  0  0
  8 11  1  0  0  0  0
  9  6  1  0  0  0  0
 10 13  1  0  0  0  0
 11 14  1  0  0  0  0
 12  9  1  0  0  0  0
 14 12  1  0  0  0  0
 14 15  1  0  0  0  0
 15 16  1  0  0  0  0
 15 17  1  0  0  0  0
 18  2  1  0  0  0  0
 18 23  2  0  0  0  0
 19  1  1  0  0  0  0
 19 18  1  0  0  0  0
 20 19  2  0  0  0  0
 21  3  1  0  0  0  0
 21 20  1  0  0  0  0
 22 21  2  0  0  0  0
 22 23  1  0  0  0  0
M  END
>  <CHROM.1>
-70.12871559,91.08838352,-59.03083032,84.77754522,71.47938139,5.45555800
102.12563948,17.40210139,100.41964014,107.43700277,-98.15733348,-20.55733555
-6.79494184,7.73703746,2.05128006,1.10032031,0.16521341

>  <Name>
1uui_lig

>  <RI>
0

>  <Rbt.Current_Directory>
/home/itssahil/PROJECTS/Mol_Feturizer/New_Systems/rnas/1uui

>  <Rbt.Executable>
rbdock ($Id: //depot/dev/client3/rdock/2013.1/src/exe/rbdock.cxx#4 $)

>  <Rbt.Library>
libRbt.so (2013.1, Build901 2013/11/27)

>  <Rbt.Parameter_File>
/export/apps/rDock/src/rDock_2013.1_src/data/scripts/dock_solv.prm

>  <Rbt.Receptor>
prm/blind_docking_100.prm

>  <SCORE>
-14.8112

>  <SCORE.INTER>
-11.5736

>  <SCORE.INTER.CONST>
1

>  <SCORE.INTER.POLAR>
-1.77979

>  <SCORE.INTER.ROT>
10

>  <SCORE.INTER.SOLV>
5.21082

>  <SCORE.INTER.VDW>
-13.7867

>  <SCORE.INTER.norm>
-0.503201

>  <SCORE.INTRA>
-3.23757

>  <SCORE.INTRA.DIHEDRAL>
-4.0649

>  <SCORE.INTRA.DIHEDRAL.0>
23.4151

>  <SCORE.INTRA.POLAR>
0

>  <SCORE.INTRA.POLAR.0>
0

>  <SCORE.INTRA.REPUL>
0.178777

>  <SCORE.INTRA.REPUL.0>
0

>  <SCORE.INTRA.SOLV>
1.44728

>  <SCORE.INTRA.SOLV.lig_0>
-17.3568

>  <SCORE.INTRA.VDW>
-2.82264

>  <SCORE.INTRA.VDW.0>
1.0768

>  <SCORE.INTRA.norm>
-0.140764

>  <SCORE.RESTR>
0

>  <SCORE.RESTR.CAVITY>
0

>  <SCORE.RESTR.norm>
0

>  <SCORE.SYSTEM>
0

>  <SCORE.SYSTEM.CONST>
0

>  <SCORE.SYSTEM.DIHEDRAL>
0

>  <SCORE.SYSTEM.SOLV>
0

>  <SCORE.SYSTEM.norm>
0

>  <SCORE.heavy>
23

>  <SCORE.norm>
-0.643965

>  <RMSD>
14.188

$$$$
1uui_lig
 OpenBabel11021811413D
libRbt.so/2013.1/901 2013/11/27
 23 24  0  0  0  0  0  0  0  0999 V2000
  -20.7450   -7.8339    7.2024 C   0  0  0  0  0  0  0  0  0  0  0  0
  -18.4405   -6.1084    7.6062 O   0  0  0  0  0  0  0  0  0  0  0  0
  -22.7783   -5.6640   11.2791 O   0  0  0  0  0  0  0  0  0  0  0  0
  -17.4102   -6.9390    8.1563 C   0  0  0  0  0  0  0  0  0  0  0  0
  -22.8538   -6.8474   12.0778 C   0  0  0  0  0  0  0  0  0  0  0  0
  -21.6009   -7.2879    6.0984 N   0  0  0  0  0  0  0  0  0  0  0  0
  -17.7106   -8.3995    7.8158 C   0  0  0  0  0  0  0  0  0  0  0  0
  -22.0045   -8.3599    5.1482 C   0  0  0  0  0  0  0  0  0  0  0  0
  -20.8908   -6.2113    5.3586 C   0  0  0  0  0  0  0  0  0  0  0  0
  -16.7046   -9.3182    8.5166 C   0  0  0  0  0  0  0  0  0  0  0  0
  -20.7887   -9.0195    4.4753 C   0  0  0  0  0  0  0  0  0  0  0  0
  -19.5811   -6.7214    4.7336 C   0  0  0  0  0  0  0  0  0  0  0  0
  -16.9848  -10.7254    8.1537 N   0  0  0  0  0  0  0  0  0  0  0  0
  -19.5399   -8.2149    4.6559 N   0  0  0  0  0  0  0  0  0  0  0  0
  -18.2945   -8.8510    4.4978 C   0  0  0  0  0  0  0  0  0  0  0  0
  -17.1371   -8.1305    4.5111 N   0  0  0  0  0  0  0  0  0  0  0  0
  -18.2246  -10.1785    4.1940 N   0  0  0  0  0  0  0  0  0  0  0  0
  -19.5284   -6.0014    8.5288 C   0  0  0  0  0  0  0  0  0  0  0  0
  -20.6772   -6.8240    8.3715 C   0  0  0  0  0  0  0  0  0  0  0  0
  -21.7587   -6.7108    9.2888 C   0  0  0  0  0  0  0  0  0  0  0  0
  -21.6892   -5.7777   10.3588 C   0  0  0  0  0  0  0  0  0  0  0  0
  -20.5401   -4.9586   10.5139 C   0  0  0  0  0  0  0  0  0  0  0  0
  -19.4607   -5.0698    9.5984 C   0  0  0  0  0  0  0  0  0  0  0  0
  2  4  1  0  0  0  0
  3  5  1  0  0  0  0
  4  7  1  0  0  0  0
  6  1  1  0  0  0  0
  7 10  1  0  0  0  0
  8  6  1  0  0  0  0
  8 11  1  0  0  0  0
  9  6  1  0  0  0  0
 10 13  1  0  0  0  0
 11 14  1  0  0  0  0
 12  9  1  0  0  0  0
 14 12  1  0  0  0  0
 14 15  1  0  0  0  0
 15 16  1  0  0  0  0
 15 17  1  0  0  0  0
 18  2  1  0  0  0  0
 18 23  2  0  0  0  0
 19  1  1  0  0  0  0
 19 18  1  0  0  0  0
 20 19  2  0  0  0  0
 21  3  1  0  0  0  0
 21 20  1  0  0  0  0
 22 21  2  0  0  0  0
 22 23  1  0  0  0  0
M  END
>  <CHROM.1>
87.00685518,-174.09067302,-163.78552029,-178.63605799,76.41847348,172.92798340
35.70846553,-131.79186354,-98.24864944,-101.39842263,69.04241025,-19.75277045
-7.46753190,7.40085245,2.09873221,-0.41406545,1.29952443

>  <Name>
1uui_lig

>  <RI>
0

>  <Rbt.Current_Directory>
/home/itssahil/PROJECTS/Mol_Feturizer/New_Systems/rnas/1uui

>  <Rbt.Executable>
rbdock ($Id: //depot/dev/client3/rdock/2013.1/src/exe/rbdock.cxx#4 $)

>  <Rbt.Library>
libRbt.so (2013.1, Build901 2013/11/27)

>  <Rbt.Parameter_File>
/export/apps/rDock/src/rDock_2013.1_src/data/scripts/dock_solv.prm

>  <Rbt.Receptor>
prm/blind_docking_60.prm

>  <SCORE>
-33.7867

>  <SCORE.INTER>
-28.5578

>  <SCORE.INTER.CONST>
1

>  <SCORE.INTER.POLAR>
-3.8754

>  <SCORE.INTER.ROT>
10

>  <SCORE.INTER.SOLV>
7.60538

>  <SCORE.INTER.VDW>
-18.9223

>  <SCORE.INTER.norm>
-1.24164

>  <SCORE.INTRA>
-5.51106

>  <SCORE.INTRA.DIHEDRAL>
-5.8669

>  <SCORE.INTRA.DIHEDRAL.0>
23.4151

>  <SCORE.INTRA.POLAR>
0

>  <SCORE.INTRA.POLAR.0>
0

>  <SCORE.INTRA.REPUL>
0.00513934

>  <SCORE.INTRA.REPUL.0>
0

>  <SCORE.INTRA.SOLV>
1.25939

>  <SCORE.INTRA.SOLV.lig_0>
-17.3568

>  <SCORE.INTRA.VDW>
-3.233

>  <SCORE.INTRA.VDW.0>
1.0768

>  <SCORE.INTRA.norm>
-0.239611

>  <SCORE.RESTR>
0.282214

>  <SCORE.RESTR.CAVITY>
0.282214

>  <SCORE.RESTR.norm>
0.0122702

>  <SCORE.SYSTEM>
0

>  <SCORE.SYSTEM.CONST>
0

>  <SCORE.SYSTEM.DIHEDRAL>
0

>  <SCORE.SYSTEM.SOLV>
0

>  <SCORE.SYSTEM.norm>
0

>  <SCORE.heavy>
23

>  <SCORE.norm>
-1.46899

>  <RMSD>
14.193

$$$$
1uui_lig
 OpenBabel11021811413D
libRbt.so/2013.1/901 2013/11/27
 23 24  0  0  0  0  0  0  0  0999 V2000
  -21.1328   -7.3381    8.2897 C   0  0  0  0  0  0  0  0  0  0  0  0
  -20.4817   -6.5264    5.5752 O   0  0  0  0  0  0  0  0  0  0  0  0
  -16.7543   -9.8458    8.3305 O   0  0  0  0  0  0  0  0  0  0  0  0
  -20.6655   -7.0002    4.2352 C   0  0  0  0  0  0  0  0  0  0  0  0
  -16.0251   -9.0587    9.2755 C   0  0  0  0  0  0  0  0  0  0  0  0
  -21.0165   -7.5160    9.7744 N   0  0  0  0  0  0  0  0  0  0  0  0
  -21.4583   -8.3077    4.2717 C   0  0  0  0  0  0  0  0  0  0  0  0
  -22.3292   -7.3157   10.4462 C   0  0  0  0  0  0  0  0  0  0  0  0
  -20.0183   -6.5737   10.3457 C   0  0  0  0  0  0  0  0  0  0  0  0
  -21.1564   -9.1383    3.0203 C   0  0  0  0  0  0  0  0  0  0  0  0
  -22.8827   -5.8991   10.2164 C   0  0  0  0  0  0  0  0  0  0  0  0
  -20.4004   -5.1088   10.0734 C   0  0  0  0  0  0  0  0  0  0  0  0
  -19.8260   -9.7721    3.1572 N   0  0  0  0  0  0  0  0  0  0  0  0
  -21.8390   -4.9657    9.6881 N   0  0  0  0  0  0  0  0  0  0  0  0
  -22.2497   -3.7935    9.0265 C   0  0  0  0  0  0  0  0  0  0  0  0
  -23.1330   -3.8513    7.9895 N   0  0  0  0  0  0  0  0  0  0  0  0
  -21.6739   -2.5920    9.3172 N   0  0  0  0  0  0  0  0  0  0  0  0
  -19.5498   -7.3624    6.2671 C   0  0  0  0  0  0  0  0  0  0  0  0
  -19.8245   -7.7844    7.5967 C   0  0  0  0  0  0  0  0  0  0  0  0
  -18.8926   -8.6121    8.2824 C   0  0  0  0  0  0  0  0  0  0  0  0
  -17.6910   -9.0150    7.6388 C   0  0  0  0  0  0  0  0  0  0  0  0
  -17.4201   -8.5931    6.3107 C   0  0  0  0  0  0  0  0  0  0  0  0
  -18.3489   -7.7661    5.6257 C   0  0  0  0  0  0  0  0  0  0  0  0
  2  4  1  0  0  0  0
  3  5  1  0  0  0  0
  4  7  1  0  0  0  0
  6  1  1  0  0  0  0
  7 10  1  0  0  0  0
  8  6  1  0  0  0  0
  8 11  1  0  0  0  0
  9  6  1  0  0  0  0
 10 13  1  0  0  0  0
 11 14  1  0  0  0  0
 12  9  1  0  0  0  0
 14 12  1  0  0  0  0
 14 15  1  0  0  0  0
 15 16  1  0  0  0  0
 15 17  1  0  0  0  0
 18  2  1  0  0  0  0
 18 23  2  0  0  0  0
 19  1  1  0  0  0  0
 19 18  1  0  0  0  0
 20 19  2  0  0  0  0
 21  3  1  0  0  0  0
 21 20  1  0  0  0  0
 22 21  2  0  0  0  0
 22 23  1  0  0  0  0
M  END
>  <CHROM.1>
71.24784178,-155.16564116,-170.37617238,76.17574924,-145.01337576,-52.71753284
-167.12284692,70.56813078,-135.48696586,-162.02495644,-76.48124930,-20.23190442
-7.09940966,7.58457119,-2.20563120,0.68669447,-1.91758480

>  <Name>
1uui_lig

>  <RI>
0

>  <Rbt.Current_Directory>
/home/itssahil/PROJECTS/Mol_Feturizer/New_Systems/rnas/1uui

>  <Rbt.Executable>
rbdock ($Id: //depot/dev/client3/rdock/2013.1/src/exe/rbdock.cxx#4 $)

>  <Rbt.Library>
libRbt.so (2013.1, Build901 2013/11/27)

>  <Rbt.Parameter_File>
/export/apps/rDock/src/rDock_2013.1_src/data/scripts/dock_solv.prm

>  <Rbt.Receptor>
prm/blind_docking_60.prm

>  <SCORE>
-14.4681

>  <SCORE.INTER>
-11.7966

>  <SCORE.INTER.CONST>
1

>  <SCORE.INTER.POLAR>
-1.43792

>  <SCORE.INTER.ROT>
10

>  <SCORE.INTER.SOLV>
4.99338

>  <SCORE.INTER.VDW>
-15.0024

>  <SCORE.INTER.norm>
-0.512895

>  <SCORE.INTRA>
-2.6861

>  <SCORE.INTRA.DIHEDRAL>
-6.11185

>  <SCORE.INTRA.DIHEDRAL.0>
23.4151

>  <SCORE.INTRA.POLAR>
0

>  <SCORE.INTRA.POLAR.0>
0

>  <SCORE.INTRA.REPUL>
0

>  <SCORE.INTRA.REPUL.0>
0

>  <SCORE.INTRA.SOLV>
0.292761

>  <SCORE.INTRA.SOLV.lig_0>
-17.3568

>  <SCORE.INTRA.VDW>
0.223444

>  <SCORE.INTRA.VDW.0>
1.0768

>  <SCORE.INTRA.norm>
-0.116787

>  <SCORE.RESTR>
0.0145814

>  <SCORE.RESTR.CAVITY>
0.0145814

>  <SCORE.RESTR.norm>
0.000633973

>  <SCORE.SYSTEM>
0

>  <SCORE.SYSTEM.CONST>
0

>  <SCORE.SYSTEM.DIHEDRAL>
0

>  <SCORE.SYSTEM.SOLV>
0

>  <SCORE.SYSTEM.norm>
0

>  <SCORE.heavy>
23

>  <SCORE.norm>
-0.629048

>  <RMSD>
14.197

$$$$
1uui_lig
 OpenBabel11021811413D
libRbt.so/2013.1/901 2013/11/27
 23 24  0  0  0  0  0  0  0  0999 V2000
  -20.7718   -7.0305    8.4884 C   0  0  0  0  0  0  0  0  0  0  0  0
  -21.1257   -9.0599    6.4372 O   0  0  0  0  0  0  0  0  0  0  0  0
  -15.9369   -8.4557    8.7208 O   0  0  0  0  0  0  0  0  0  0  0  0
  -21.0978   -8.6755    5.0568 C   0  0  0  0  0  0  0  0  0  0  0  0
  -15.9379   -8.9666   10.0561 C   0  0  0  0  0  0  0  0  0  0  0  0
  -21.0056   -7.2125    9.9587 N   0  0  0  0  0  0  0  0  0  0  0  0
  -20.7310   -7.1940    4.9580 C   0  0  0  0  0  0  0  0  0  0  0  0
  -22.4531   -7.1171   10.2907 C   0  0  0  0  0  0  0  0  0  0  0  0
  -20.2489   -6.2033   10.7458 C   0  0  0  0  0  0  0  0  0  0  0  0
  -19.7006   -6.9828    3.8441 C   0  0  0  0  0  0  0  0  0  0  0  0
  -23.0388   -5.7439    9.9203 C   0  0  0  0  0  0  0  0  0  0  0  0
  -20.6622   -4.7687   10.3752 C   0  0  0  0  0  0  0  0  0  0  0  0
  -18.3650   -7.4072    4.3199 N   0  0  0  0  0  0  0  0  0  0  0  0
  -21.9711   -4.7303    9.6517 N   0  0  0  0  0  0  0  0  0  0  0  0
  -22.2959   -3.5862    8.8993 C   0  0  0  0  0  0  0  0  0  0  0  0
  -23.4275   -3.5495    8.1396 N   0  0  0  0  0  0  0  0  0  0  0  0
  -21.4224   -2.5432    8.8062 N   0  0  0  0  0  0  0  0  0  0  0  0
  -19.8256   -8.9091    7.0144 C   0  0  0  0  0  0  0  0  0  0  0  0
  -19.6039   -7.9294    8.0205 C   0  0  0  0  0  0  0  0  0  0  0  0
  -18.3081   -7.7800    8.5883 C   0  0  0  0  0  0  0  0  0  0  0  0
  -17.2396   -8.6086    8.1500 C   0  0  0  0  0  0  0  0  0  0  0  0
  -17.4644   -9.5868    7.1461 C   0  0  0  0  0  0  0  0  0  0  0  0
  -18.7569   -9.7360    6.5779 C   0  0  0  0  0  0  0  0  0  0  0  0
  2  4  1  0  0  0  0
  3  5  1  0  0  0  0
  4  7  1  0  0  0  0
  6  1  1  0  0  0  0
  7 10  1  0  0  0  0
  8  6  1  0  0  0  0
  8 11  1  0  0  0  0
  9  6  1  0  0  0  0
 10 13  1  0  0  0  0
 11 14  1  0  0  0  0
 12  9  1  0  0  0  0
 14 12  1  0  0  0  0
 14 15  1  0  0  0  0
 15 16  1  0  0  0  0
 15 17  1  0  0  0  0
 18  2  1  0  0  0  0
 18 23  2  0  0  0  0
 19  1  1  0  0  0  0
 19 18  1  0  0  0  0
 20 19  2  0  0  0  0
 21  3  1  0  0  0  0
 21 20  1  0  0  0  0
 22 21  2  0  0  0  0
 22 23  1  0  0  0  0
M  END
>  <CHROM.1>
-62.79274365,135.97755393,-144.76163389,-77.20068296,70.47895779,-16.94544598
-53.41668084,-75.74045087,113.34496371,120.61214234,72.40360918,-20.07423973
-6.98248444,7.99356559,-2.54584842,0.67040575,-1.88062973

>  <Name>
1uui_lig

>  <RI>
0

>  <Rbt.Current_Directory>
/home/itssahil/PROJECTS/Mol_Feturizer/New_Systems/rnas/1uui

>  <Rbt.Executable>
rbdock ($Id: //depot/dev/client3/rdock/2013.1/src/exe/rbdock.cxx#4 $)

>  <Rbt.Library>
libRbt.so (2013.1, Build901 2013/11/27)

>  <Rbt.Parameter_File>
/export/apps/rDock/src/rDock_2013.1_src/data/scripts/dock_solv.prm

>  <Rbt.Receptor>
prm/blind_docking_100.prm

>  <SCORE>
-20.6396

>  <SCORE.INTER>
-17.8745

>  <SCORE.INTER.CONST>
1

>  <SCORE.INTER.POLAR>
-2.02455

>  <SCORE.INTER.ROT>
10

>  <SCORE.INTER.SOLV>
6.36413

>  <SCORE.INTER.VDW>
-17.5559

>  <SCORE.INTER.norm>
-0.777153

>  <SCORE.INTRA>
-3.00307

>  <SCORE.INTRA.DIHEDRAL>
-2.47806

>  <SCORE.INTRA.DIHEDRAL.0>
23.4151

>  <SCORE.INTRA.POLAR>
0

>  <SCORE.INTRA.POLAR.0>
0

>  <SCORE.INTRA.REPUL>
0

>  <SCORE.INTRA.REPUL.0>
0

>  <SCORE.INTRA.SOLV>
0.515929

>  <SCORE.INTRA.SOLV.lig_0>
-17.3568

>  <SCORE.INTRA.VDW>
-2.02201

>  <SCORE.INTRA.VDW.0>
1.0768

>  <SCORE.INTRA.norm>
-0.130568

>  <SCORE.RESTR>
0.238022

>  <SCORE.RESTR.CAVITY>
0.238022

>  <SCORE.RESTR.norm>
0.0103488

>  <SCORE.SYSTEM>
0

>  <SCORE.SYSTEM.CONST>
0

>  <SCORE.SYSTEM.DIHEDRAL>
0

>  <SCORE.SYSTEM.SOLV>
0

>  <SCORE.SYSTEM.norm>
0

>  <SCORE.heavy>
23

>  <SCORE.norm>
-0.897372

>  <RMSD>
14.199

$$$$
1uui_lig
 OpenBabel11021811413D
libRbt.so/2013.1/901 2013/11/27
 23 24  0  0  0  0  0  0  0  0999 V2000
  -20.1017   -7.8580    7.7589 C   0  0  0  0  0  0  0  0  0  0  0  0
  -17.9266   -7.0339    9.5028 O   0  0  0  0  0  0  0  0  0  0  0  0
  -22.7045   -3.9237    9.5501 O   0  0  0  0  0  0  0  0  0  0  0  0
  -17.7903   -7.7482   10.7377 C   0  0  0  0  0  0  0  0  0  0  0  0
  -22.7952   -3.1736    8.3364 C   0  0  0  0  0  0  0  0  0  0  0  0
  -19.8905   -7.4255    6.3384 N   0  0  0  0  0  0  0  0  0  0  0  0
  -16.4648   -8.5113   10.7301 C   0  0  0  0  0  0  0  0  0  0  0  0
  -20.5363   -8.3688    5.3856 C   0  0  0  0  0  0  0  0  0  0  0  0
  -18.4410   -7.3194    6.0253 C   0  0  0  0  0  0  0  0  0  0  0  0
  -16.2174   -9.1448   12.1029 C   0  0  0  0  0  0  0  0  0  0  0  0
  -19.9582   -9.7894    5.5019 C   0  0  0  0  0  0  0  0  0  0  0  0
  -17.7182   -8.6628    6.2230 C   0  0  0  0  0  0  0  0  0  0  0  0
  -15.8834   -8.0865   13.0822 N   0  0  0  0  0  0  0  0  0  0  0  0
  -18.6735   -9.8133    6.2692 N   0  0  0  0  0  0  0  0  0  0  0  0
  -18.2440  -11.0282    6.8350 C   0  0  0  0  0  0  0  0  0  0  0  0
  -18.3309  -12.1936    6.1326 N   0  0  0  0  0  0  0  0  0  0  0  0
  -17.8582  -11.0896    8.1415 N   0  0  0  0  0  0  0  0  0  0  0  0
  -19.1278   -6.2573    9.5158 C   0  0  0  0  0  0  0  0  0  0  0  0
  -20.2184   -6.6211    8.6795 C   0  0  0  0  0  0  0  0  0  0  0  0
  -21.4094   -5.8431    8.6926 C   0  0  0  0  0  0  0  0  0  0  0  0
  -21.5069   -4.7059    9.5397 C   0  0  0  0  0  0  0  0  0  0  0  0
  -20.4166   -4.3459   10.3745 C   0  0  0  0  0  0  0  0  0  0  0  0
  -19.2271   -5.1209   10.3615 C   0  0  0  0  0  0  0  0  0  0  0  0
  2  4  1  0  0  0  0
  3  5  1  0  0  0  0
  4  7  1  0  0  0  0
  6  1  1  0  0  0  0
  7 10  1  0  0  0  0
  8  6  1  0  0  0  0
  8 11  1  0  0  0  0
  9  6  1  0  0  0  0
 10 13  1  0  0  0  0
 11 14  1  0  0  0  0
 12  9  1  0  0  0  0
 14 12  1  0  0  0  0
 14 15  1  0  0  0  0
 15 16  1  0  0  0  0
 15 17  1  0  0  0  0
 18  2  1  0  0  0  0
 18 23  2  0  0  0  0
 19  1  1  0  0  0  0
 19 18  1  0  0  0  0
 20 19  2  0  0  0  0
 21  3  1  0  0  0  0
 21 20  1  0  0  0  0
 22 21  2  0  0  0  0
 22 23  1  0  0  0  0
M  END
>  <CHROM.1>
-177.02562443,173.18458247,-146.62084175,-71.67443413,174.46486779,42.90873801
81.66125466,107.46509570,-110.20290883,-104.52975111,-72.28440509,-19.14778982
-7.62474222,8.52693925,2.29337176,-0.77238724,0.88846390

>  <Name>
1uui_lig

>  <RI>
0

>  <Rbt.Current_Directory>
/home/itssahil/PROJECTS/Mol_Feturizer/New_Systems/rnas/1uui

>  <Rbt.Executable>
rbdock ($Id: //depot/dev/client3/rdock/2013.1/src/exe/rbdock.cxx#4 $)

>  <Rbt.Library>
libRbt.so (2013.1, Build901 2013/11/27)

>  <Rbt.Parameter_File>
/export/apps/rDock/src/rDock_2013.1_src/data/scripts/dock_solv.prm

>  <Rbt.Receptor>
prm/blind_docking_80.prm

>  <SCORE>
-20.723

>  <SCORE.INTER>
-13.7587

>  <SCORE.INTER.CONST>
1

>  <SCORE.INTER.POLAR>
-1.19006

>  <SCORE.INTER.ROT>
10

>  <SCORE.INTER.SOLV>
5.03162

>  <SCORE.INTER.VDW>
-17.1495

>  <SCORE.INTER.norm>
-0.598206

>  <SCORE.INTRA>
-6.99165

>  <SCORE.INTRA.DIHEDRAL>
-7.74517

>  <SCORE.INTRA.DIHEDRAL.0>
23.4151

>  <SCORE.INTRA.POLAR>
0

>  <SCORE.INTRA.POLAR.0>
0

>  <SCORE.INTRA.REPUL>
0

>  <SCORE.INTRA.REPUL.0>
0

>  <SCORE.INTRA.SOLV>
0.345579

>  <SCORE.INTRA.SOLV.lig_0>
-17.3568

>  <SCORE.INTRA.VDW>
-3.29185

>  <SCORE.INTRA.VDW.0>
1.0768

>  <SCORE.INTRA.norm>
-0.303985

>  <SCORE.RESTR>
0.0274108

>  <SCORE.RESTR.CAVITY>
0.0274108

>  <SCORE.RESTR.norm>
0.00119178

>  <SCORE.SYSTEM>
0

>  <SCORE.SYSTEM.CONST>
0

>  <SCORE.SYSTEM.DIHEDRAL>
0

>  <SCORE.SYSTEM.SOLV>
0

>  <SCORE.SYSTEM.norm>
0

>  <SCORE.heavy>
23

>  <SCORE.norm>
-0.900999

>  <RMSD>
14.202

$$$$
1uui_lig
 OpenBabel11021811413D
libRbt.so/2013.1/901 2013/11/27
 23 24  0  0  0  0  0  0  0  0999 V2000
  -20.6253   -4.8781    6.7859 C   0  0  0  0  0  0  0  0  0  0  0  0
  -22.0910   -7.1766    7.7961 O   0  0  0  0  0  0  0  0  0  0  0  0
  -17.7922   -8.1381    4.1767 O   0  0  0  0  0  0  0  0  0  0  0  0
  -21.6644   -7.4125    9.1438 C   0  0  0  0  0  0  0  0  0  0  0  0
  -16.8695   -9.0596    4.7630 C   0  0  0  0  0  0  0  0  0  0  0  0
  -19.6683   -4.3881    7.8315 N   0  0  0  0  0  0  0  0  0  0  0  0
  -22.8240   -7.1122   10.0949 C   0  0  0  0  0  0  0  0  0  0  0  0
  -20.0906   -4.8167    9.1927 C   0  0  0  0  0  0  0  0  0  0  0  0
  -19.5516   -2.9064    7.7922 C   0  0  0  0  0  0  0  0  0  0  0  0
  -22.4802   -7.5936   11.5081 C   0  0  0  0  0  0  0  0  0  0  0  0
  -21.4737   -4.2584    9.5681 C   0  0  0  0  0  0  0  0  0  0  0  0
  -20.9084   -2.2239    8.0359 C   0  0  0  0  0  0  0  0  0  0  0  0
  -23.5415   -7.1665   12.4471 N   0  0  0  0  0  0  0  0  0  0  0  0
  -21.9035   -3.1559    8.6519 N   0  0  0  0  0  0  0  0  0  0  0  0
  -23.2717   -2.8366    8.5701 C   0  0  0  0  0  0  0  0  0  0  0  0
  -24.2176   -3.8186    8.5650 N   0  0  0  0  0  0  0  0  0  0  0  0
  -23.6751   -1.5512    8.3591 N   0  0  0  0  0  0  0  0  0  0  0  0
  -21.0095   -7.4156    6.8908 C   0  0  0  0  0  0  0  0  0  0  0  0
  -20.2641   -6.3229    6.3697 C   0  0  0  0  0  0  0  0  0  0  0  0
  -19.1923   -6.5653    5.4662 C   0  0  0  0  0  0  0  0  0  0  0  0
  -18.8690   -7.8964    5.0867 C   0  0  0  0  0  0  0  0  0  0  0  0
  -19.6144   -8.9855    5.6098 C   0  0  0  0  0  0  0  0  0  0  0  0
  -20.6850   -8.7448    6.5107 C   0  0  0  0  0  0  0  0  0  0  0  0
  2  4  1  0  0  0  0
  3  5  1  0  0  0  0
  4  7  1  0  0  0  0
  6  1  1  0  0  0  0
  7 10  1  0  0  0  0
  8  6  1  0  0  0  0
  8 11  1  0  0  0  0
  9  6  1  0  0  0  0
 10 13  1  0  0  0  0
 11 14  1  0  0  0  0
 12  9  1  0  0  0  0
 14 12  1  0  0  0  0
 14 15  1  0  0  0  0
 15 16  1  0  0  0  0
 15 17  1  0  0  0  0
 18  2  1  0  0  0  0
 18 23  2  0  0  0  0
 19  1  1  0  0  0  0
 19 18  1  0  0  0  0
 20 19  2  0  0  0  0
 21  3  1  0  0  0  0
 21 20  1  0  0  0  0
 22 21  2  0  0  0  0
 22 23  1  0  0  0  0
M  END
>  <CHROM.1>
178.39342166,169.85032059,-84.66920126,173.82600811,139.64847109,-40.16865450
151.51783285,-22.94642147,-100.18622634,101.27392708,125.49041261,-21.02292104
-5.80819950,7.85963849,-0.44440049,0.87165566,-0.19894520

>  <Name>
1uui_lig

>  <RI>
0

>  <Rbt.Current_Directory>
/home/itssahil/PROJECTS/Mol_Feturizer/New_Systems/rnas/1uui

>  <Rbt.Executable>
rbdock ($Id: //depot/dev/client3/rdock/2013.1/src/exe/rbdock.cxx#4 $)

>  <Rbt.Library>
libRbt.so (2013.1, Build901 2013/11/27)

>  <Rbt.Parameter_File>
/export/apps/rDock/src/rDock_2013.1_src/data/scripts/dock_solv.prm

>  <Rbt.Receptor>
prm/blind_docking_100.prm

>  <SCORE>
-23.4173

>  <SCORE.INTER>
-21.3319

>  <SCORE.INTER.CONST>
1

>  <SCORE.INTER.POLAR>
-3.30032

>  <SCORE.INTER.ROT>
10

>  <SCORE.INTER.SOLV>
9.97965

>  <SCORE.INTER.VDW>
-16.8134

>  <SCORE.INTER.norm>
-0.927472

>  <SCORE.INTRA>
-3.79691

>  <SCORE.INTRA.DIHEDRAL>
-6.50443

>  <SCORE.INTRA.DIHEDRAL.0>
23.4151

>  <SCORE.INTRA.POLAR>
0

>  <SCORE.INTRA.POLAR.0>
0

>  <SCORE.INTRA.REPUL>
0

>  <SCORE.INTRA.REPUL.0>
0

>  <SCORE.INTRA.SOLV>
0.588987

>  <SCORE.INTRA.SOLV.lig_0>
-17.3568

>  <SCORE.INTRA.VDW>
-0.839192

>  <SCORE.INTRA.VDW.0>
1.0768

>  <SCORE.INTRA.norm>
-0.165083

>  <SCORE.RESTR>
1.71144

>  <SCORE.RESTR.CAVITY>
1.71144

>  <SCORE.RESTR.norm>
0.0744104

>  <SCORE.SYSTEM>
0

>  <SCORE.SYSTEM.CONST>
0

>  <SCORE.SYSTEM.DIHEDRAL>
0

>  <SCORE.SYSTEM.SOLV>
0

>  <SCORE.SYSTEM.norm>
0

>  <SCORE.heavy>
23

>  <SCORE.norm>
-1.01814

>  <RMSD>
14.212

$$$$
1uui_lig
 OpenBabel11021811413D
libRbt.so/2013.1/901 2013/11/27
 23 24  0  0  0  0  0  0  0  0999 V2000
  -19.6245   -7.0323    9.1700 C   0  0  0  0  0  0  0  0  0  0  0  0
  -18.6519   -8.2812    6.7316 O   0  0  0  0  0  0  0  0  0  0  0  0
  -15.3508   -8.5661   11.3711 O   0  0  0  0  0  0  0  0  0  0  0  0
  -19.4394   -9.4726    6.6112 C   0  0  0  0  0  0  0  0  0  0  0  0
  -16.1489   -8.9073   12.5071 C   0  0  0  0  0  0  0  0  0  0  0  0
  -20.3371   -7.3723   10.4452 N   0  0  0  0  0  0  0  0  0  0  0  0
  -19.7709   -9.7057    5.1364 C   0  0  0  0  0  0  0  0  0  0  0  0
  -21.8103   -7.4268   10.2419 C   0  0  0  0  0  0  0  0  0  0  0  0
  -20.0199   -6.3849   11.5105 C   0  0  0  0  0  0  0  0  0  0  0  0
  -18.5510  -10.2812    4.4101 C   0  0  0  0  0  0  0  0  0  0  0  0
  -22.3761   -6.0766    9.7700 C   0  0  0  0  0  0  0  0  0  0  0  0
  -20.4320   -4.9597   11.1039 C   0  0  0  0  0  0  0  0  0  0  0  0
  -17.3695   -9.4316    4.6797 N   0  0  0  0  0  0  0  0  0  0  0  0
  -21.4001   -4.9587    9.9633 N   0  0  0  0  0  0  0  0  0  0  0  0
  -21.5643   -3.7781    9.2151 C   0  0  0  0  0  0  0  0  0  0  0  0
  -21.0410   -2.5974    9.6521 N   0  0  0  0  0  0  0  0  0  0  0  0
  -22.3615   -3.7603    8.1089 N   0  0  0  0  0  0  0  0  0  0  0  0
  -17.8271   -8.3547    7.8979 C   0  0  0  0  0  0  0  0  0  0  0  0
  -18.2603   -7.7582    9.1135 C   0  0  0  0  0  0  0  0  0  0  0  0
  -17.4345   -7.8300   10.2697 C   0  0  0  0  0  0  0  0  0  0  0  0
  -16.1806   -8.4965   10.2080 C   0  0  0  0  0  0  0  0  0  0  0  0
  -15.7514   -9.0923    8.9931 C   0  0  0  0  0  0  0  0  0  0  0  0
  -16.5742   -9.0203    7.8383 C   0  0  0  0  0  0  0  0  0  0  0  0
  2  4  1  0  0  0  0
  3  5  1  0  0  0  0
  4  7  1  0  0  0  0
  6  1  1  0  0  0  0
  7 10  1  0  0  0  0
  8  6  1  0  0  0  0
  8 11  1  0  0  0  0
  9  6  1  0  0  0  0
 10 13  1  0  0  0  0
 11 14  1  0  0  0  0
 12  9  1  0  0  0  0
 14 12  1  0  0  0  0
 14 15  1  0  0  0  0
 15 16  1  0  0  0  0
 15 17  1  0  0  0  0
 18  2  1  0  0  0  0
 18 23  2  0  0  0  0
 19  1  1  0  0  0  0
 19 18  1  0  0  0  0
 20 19  2  0  0  0  0
 21  3  1  0  0  0  0
 21 20  1  0  0  0  0
 22 21  2  0  0  0  0
 22 23  1  0  0  0  0
M  END
>  <CHROM.1>
-153.04270719,77.17528893,-146.11679870,-51.60531187,118.60655855,156.81143782
-93.75066598,-169.49703708,-95.78096522,138.01917045,44.58085832,-19.08489392
-7.33890724,8.88377975,2.45020436,-0.65154776,1.13198680

>  <Name>
1uui_lig

>  <RI>
0

>  <Rbt.Current_Directory>
/home/itssahil/PROJECTS/Mol_Feturizer/New_Systems/rnas/1uui

>  <Rbt.Executable>
rbdock ($Id: //depot/dev/client3/rdock/2013.1/src/exe/rbdock.cxx#4 $)

>  <Rbt.Library>
libRbt.so (2013.1, Build901 2013/11/27)

>  <Rbt.Parameter_File>
/export/apps/rDock/src/rDock_2013.1_src/data/scripts/dock_solv.prm

>  <Rbt.Receptor>
prm/blind_docking_100.prm

>  <SCORE>
-28.2897

>  <SCORE.INTER>
-28.0575

>  <SCORE.INTER.CONST>
1

>  <SCORE.INTER.POLAR>
-3.3664

>  <SCORE.INTER.ROT>
10

>  <SCORE.INTER.SOLV>
7.59751

>  <SCORE.INTER.VDW>
-20.2828

>  <SCORE.INTER.norm>
-1.21989

>  <SCORE.INTRA>
-0.639231

>  <SCORE.INTRA.DIHEDRAL>
-2.0621

>  <SCORE.INTRA.DIHEDRAL.0>
23.4151

>  <SCORE.INTRA.POLAR>
-0.611265

>  <SCORE.INTRA.POLAR.0>
0

>  <SCORE.INTRA.REPUL>
0

>  <SCORE.INTRA.REPUL.0>
0

>  <SCORE.INTRA.SOLV>
0.696883

>  <SCORE.INTRA.SOLV.lig_0>
-17.3568

>  <SCORE.INTRA.VDW>
2.12168

>  <SCORE.INTRA.VDW.0>
1.0768

>  <SCORE.INTRA.norm>
-0.0277926

>  <SCORE.RESTR>
0.407068

>  <SCORE.RESTR.CAVITY>
0.407068

>  <SCORE.RESTR.norm>
0.0176986

>  <SCORE.SYSTEM>
0

>  <SCORE.SYSTEM.CONST>
0

>  <SCORE.SYSTEM.DIHEDRAL>
0

>  <SCORE.SYSTEM.SOLV>
0

>  <SCORE.SYSTEM.norm>
0

>  <SCORE.heavy>
23

>  <SCORE.norm>
-1.22999

>  <RMSD>
14.234

$$$$
1uui_lig
 OpenBabel11021811413D
libRbt.so/2013.1/901 2013/11/27
 23 24  0  0  0  0  0  0  0  0999 V2000
  -20.4813   -7.8963    7.9513 C   0  0  0  0  0  0  0  0  0  0  0  0
  -19.1250   -7.7643   10.5192 O   0  0  0  0  0  0  0  0  0  0  0  0
  -21.7976   -3.0788    8.6733 O   0  0  0  0  0  0  0  0  0  0  0  0
  -17.8252   -7.4198   11.0150 C   0  0  0  0  0  0  0  0  0  0  0  0
  -20.8755   -1.9866    8.6434 C   0  0  0  0  0  0  0  0  0  0  0  0
  -20.5398   -7.5485    6.4935 N   0  0  0  0  0  0  0  0  0  0  0  0
  -17.3528   -8.5095   11.9786 C   0  0  0  0  0  0  0  0  0  0  0  0
  -21.2492   -8.6006    5.7159 C   0  0  0  0  0  0  0  0  0  0  0  0
  -19.1741   -7.3573    5.9378 C   0  0  0  0  0  0  0  0  0  0  0  0
  -15.8407   -8.3959   12.1970 C   0  0  0  0  0  0  0  0  0  0  0  0
  -20.5420   -9.9630    5.8136 C   0  0  0  0  0  0  0  0  0  0  0  0
  -18.3181   -8.6266    6.0872 C   0  0  0  0  0  0  0  0  0  0  0  0
  -15.1306   -8.8495   10.9803 N   0  0  0  0  0  0  0  0  0  0  0  0
  -19.1529   -9.8387    6.3562 N   0  0  0  0  0  0  0  0  0  0  0  0
  -18.5366  -10.9764    6.9096 C   0  0  0  0  0  0  0  0  0  0  0  0
  -17.2981  -10.8935    7.4736 N   0  0  0  0  0  0  0  0  0  0  0  0
  -19.1029  -12.2096    6.7750 N   0  0  0  0  0  0  0  0  0  0  0  0
  -19.7995   -6.5910   10.0558 C   0  0  0  0  0  0  0  0  0  0  0  0
  -20.4762   -6.6074    8.8056 C   0  0  0  0  0  0  0  0  0  0  0  0
  -21.1418   -5.4368    8.3468 C   0  0  0  0  0  0  0  0  0  0  0  0
  -21.1294   -4.2554    9.1371 C   0  0  0  0  0  0  0  0  0  0  0  0
  -20.4539   -4.2427   10.3857 C   0  0  0  0  0  0  0  0  0  0  0  0
  -19.7883   -5.4100   10.8441 C   0  0  0  0  0  0  0  0  0  0  0  0
  2  4  1  0  0  0  0
  3  5  1  0  0  0  0
  4  7  1  0  0  0  0
  6  1  1  0  0  0  0
  7 10  1  0  0  0  0
  8  6  1  0  0  0  0
  8 11  1  0  0  0  0
  9  6  1  0  0  0  0
 10 13  1  0  0  0  0
 11 14  1  0  0  0  0
 12  9  1  0  0  0  0
 14 12  1  0  0  0  0
 14 15  1  0  0  0  0
 15 16  1  0  0  0  0
 15 17  1  0  0  0  0
 18  2  1  0  0  0  0
 18 23  2  0  0  0  0
 19  1  1  0  0  0  0
 19 18  1  0  0  0  0
 20 19  2  0  0  0  0
 21  3  1  0  0  0  0
 21 20  1  0  0  0  0
 22 21  2  0  0  0  0
 22 23  1  0  0  0  0
M  END
>  <CHROM.1>
157.81221529,163.27515193,-149.60497319,-72.55884336,62.28910295,-176.79551946
-88.40650864,-84.21897501,134.20856038,-149.17750792,-124.46830779,-19.29228171
-7.56234091,8.55738815,1.01470490,0.82113134,-2.43445665

>  <Name>
1uui_lig

>  <RI>
0

>  <Rbt.Current_Directory>
/home/itssahil/PROJECTS/Mol_Feturizer/New_Systems/rnas/1uui

>  <Rbt.Executable>
rbdock ($Id: //depot/dev/client3/rdock/2013.1/src/exe/rbdock.cxx#4 $)

>  <Rbt.Library>
libRbt.so (2013.1, Build901 2013/11/27)

>  <Rbt.Parameter_File>
/export/apps/rDock/src/rDock_2013.1_src/data/scripts/dock_solv.prm

>  <Rbt.Receptor>
prm/blind_docking_80.prm

>  <SCORE>
-15.513

>  <SCORE.INTER>
-13.2919

>  <SCORE.INTER.CONST>
1

>  <SCORE.INTER.POLAR>
-1.71471

>  <SCORE.INTER.ROT>
10

>  <SCORE.INTER.SOLV>
6.16546

>  <SCORE.INTER.VDW>
-15.4674

>  <SCORE.INTER.norm>
-0.577907

>  <SCORE.INTRA>
-2.5375

>  <SCORE.INTRA.DIHEDRAL>
-7.8375

>  <SCORE.INTRA.DIHEDRAL.0>
23.4151

>  <SCORE.INTRA.POLAR>
0

>  <SCORE.INTRA.POLAR.0>
0

>  <SCORE.INTRA.REPUL>
0

>  <SCORE.INTRA.REPUL.0>
0

>  <SCORE.INTRA.SOLV>
0.0228924

>  <SCORE.INTRA.SOLV.lig_0>
-17.3568

>  <SCORE.INTRA.VDW>
1.3698

>  <SCORE.INTRA.VDW.0>
1.0768

>  <SCORE.INTRA.norm>
-0.110326

>  <SCORE.RESTR>
0.316375

>  <SCORE.RESTR.CAVITY>
0.316375

>  <SCORE.RESTR.norm>
0.0137554

>  <SCORE.SYSTEM>
0

>  <SCORE.SYSTEM.CONST>
0

>  <SCORE.SYSTEM.DIHEDRAL>
0

>  <SCORE.SYSTEM.SOLV>
0

>  <SCORE.SYSTEM.norm>
0

>  <SCORE.heavy>
23

>  <SCORE.norm>
-0.674478

>  <RMSD>
14.234

$$$$
1uui_lig
 OpenBabel11021811413D
libRbt.so/2013.1/901 2013/11/27
 23 24  0  0  0  0  0  0  0  0999 V2000
  -20.1298   -6.3617    7.7043 C   0  0  0  0  0  0  0  0  0  0  0  0
  -20.0840   -6.9157    4.8508 O   0  0  0  0  0  0  0  0  0  0  0  0
  -16.2428   -9.5499    8.1387 O   0  0  0  0  0  0  0  0  0  0  0  0
  -20.8096   -7.8771    4.0741 C   0  0  0  0  0  0  0  0  0  0  0  0
  -16.8859  -10.0694    9.3051 C   0  0  0  0  0  0  0  0  0  0  0  0
  -19.4149   -5.2378    8.3937 N   0  0  0  0  0  0  0  0  0  0  0  0
  -21.8249   -8.5830    4.9741 C   0  0  0  0  0  0  0  0  0  0  0  0
  -18.9639   -5.6391    9.7539 C   0  0  0  0  0  0  0  0  0  0  0  0
  -20.2856   -4.0369    8.4943 C   0  0  0  0  0  0  0  0  0  0  0  0
  -22.6065   -9.6238    4.1660 C   0  0  0  0  0  0  0  0  0  0  0  0
  -20.1445   -6.0288   10.6596 C   0  0  0  0  0  0  0  0  0  0  0  0
  -21.5723   -4.3335    9.2834 C   0  0  0  0  0  0  0  0  0  0  0  0
  -22.0415  -10.9687    4.4156 N   0  0  0  0  0  0  0  0  0  0  0  0
  -21.4575   -5.5850   10.0951 N   0  0  0  0  0  0  0  0  0  0  0  0
  -22.6350   -6.2125   10.5427 C   0  0  0  0  0  0  0  0  0  0  0  0
  -22.7100   -6.7402   11.7976 N   0  0  0  0  0  0  0  0  0  0  0  0
  -23.6773   -6.4263    9.6897 N   0  0  0  0  0  0  0  0  0  0  0  0
  -19.1237   -7.5784    5.6783 C   0  0  0  0  0  0  0  0  0  0  0  0
  -19.1069   -7.3386    7.0795 C   0  0  0  0  0  0  0  0  0  0  0  0
  -18.1470   -7.9966    7.8978 C   0  0  0  0  0  0  0  0  0  0  0  0
  -17.2084   -8.8906    7.3146 C   0  0  0  0  0  0  0  0  0  0  0  0
  -17.2286   -9.1290    5.9153 C   0  0  0  0  0  0  0  0  0  0  0  0
  -18.1854   -8.4721    5.0975 C   0  0  0  0  0  0  0  0  0  0  0  0
  2  4  1  0  0  0  0
  3  5  1  0  0  0  0
  4  7  1  0  0  0  0
  6  1  1  0  0  0  0
  7 10  1  0  0  0  0
  8  6  1  0  0  0  0
  8 11  1  0  0  0  0
  9  6  1  0  0  0  0
 10 13  1  0  0  0  0
 11 14  1  0  0  0  0
 12  9  1  0  0  0  0
 14 12  1  0  0  0  0
 14 15  1  0  0  0  0
 15 16  1  0  0  0  0
 15 17  1  0  0  0  0
 18  2  1  0  0  0  0
 18 23  2  0  0  0  0
 19  1  1  0  0  0  0
 19 18  1  0  0  0  0
 20 19  2  0  0  0  0
 21  3  1  0  0  0  0
 21 20  1  0  0  0  0
 22 21  2  0  0  0  0
 22 23  1  0  0  0  0
M  END
>  <CHROM.1>
75.62065730,-179.59855864,-81.71053613,99.82670658,-60.60140714,28.77241413
-77.78321306,20.04209901,-126.32597458,-120.55014437,45.75247670,-20.08390031
-7.39575447,7.64527855,1.91918337,-0.26417103,1.03295823

>  <Name>
1uui_lig

>  <RI>
0

>  <Rbt.Current_Directory>
/home/itssahil/PROJECTS/Mol_Feturizer/New_Systems/rnas/1uui

>  <Rbt.Executable>
rbdock ($Id: //depot/dev/client3/rdock/2013.1/src/exe/rbdock.cxx#4 $)

>  <Rbt.Library>
libRbt.so (2013.1, Build901 2013/11/27)

>  <Rbt.Parameter_File>
/export/apps/rDock/src/rDock_2013.1_src/data/scripts/dock_solv.prm

>  <Rbt.Receptor>
prm/blind_docking_60.prm

>  <SCORE>
-20.7565

>  <SCORE.INTER>
-17.539

>  <SCORE.INTER.CONST>
1

>  <SCORE.INTER.POLAR>
-2.55223

>  <SCORE.INTER.ROT>
10

>  <SCORE.INTER.SOLV>
5.57132

>  <SCORE.INTER.VDW>
-15.309

>  <SCORE.INTER.norm>
-0.762566

>  <SCORE.INTRA>
-3.21745

>  <SCORE.INTRA.DIHEDRAL>
-7.2267

>  <SCORE.INTRA.DIHEDRAL.0>
23.4151

>  <SCORE.INTRA.POLAR>
0

>  <SCORE.INTRA.POLAR.0>
0

>  <SCORE.INTRA.REPUL>
0

>  <SCORE.INTRA.REPUL.0>
0

>  <SCORE.INTRA.SOLV>
-0.0217426

>  <SCORE.INTRA.SOLV.lig_0>
-17.3568

>  <SCORE.INTRA.VDW>
0.406771

>  <SCORE.INTRA.VDW.0>
1.0768

>  <SCORE.INTRA.norm>
-0.139889

>  <SCORE.RESTR>
0

>  <SCORE.RESTR.CAVITY>
0

>  <SCORE.RESTR.norm>
0

>  <SCORE.SYSTEM>
0

>  <SCORE.SYSTEM.CONST>
0

>  <SCORE.SYSTEM.DIHEDRAL>
0

>  <SCORE.SYSTEM.SOLV>
0

>  <SCORE.SYSTEM.norm>
0

>  <SCORE.heavy>
23

>  <SCORE.norm>
-0.902455

>  <RMSD>
14.238

$$$$
1uui_lig
 OpenBabel11021811413D
libRbt.so/2013.1/901 2013/11/27
 23 24  0  0  0  0  0  0  0  0999 V2000
  -20.1940   -5.6241    8.1175 C   0  0  0  0  0  0  0  0  0  0  0  0
  -20.4146   -7.2515    5.7188 O   0  0  0  0  0  0  0  0  0  0  0  0
  -15.9002   -8.0861    9.0992 O   0  0  0  0  0  0  0  0  0  0  0  0
  -20.5698   -8.3618    4.8259 C   0  0  0  0  0  0  0  0  0  0  0  0
  -16.1608   -9.1760    9.9871 C   0  0  0  0  0  0  0  0  0  0  0  0
  -20.2598   -5.4484    9.6056 N   0  0  0  0  0  0  0  0  0  0  0  0
  -21.8022   -8.1304    3.9502 C   0  0  0  0  0  0  0  0  0  0  0  0
  -21.5051   -6.0416   10.1643 C   0  0  0  0  0  0  0  0  0  0  0  0
  -20.1871   -4.0099    9.9744 C   0  0  0  0  0  0  0  0  0  0  0  0
  -23.0543   -8.0217    4.8264 C   0  0  0  0  0  0  0  0  0  0  0  0
  -22.7672   -5.3774    9.5881 C   0  0  0  0  0  0  0  0  0  0  0  0
  -21.3410   -3.2056    9.3517 C   0  0  0  0  0  0  0  0  0  0  0  0
  -24.2611   -8.0631    3.9706 N   0  0  0  0  0  0  0  0  0  0  0  0
  -22.4578   -4.0890    8.8926 N   0  0  0  0  0  0  0  0  0  0  0  0
  -23.3820   -3.5830    7.9597 C   0  0  0  0  0  0  0  0  0  0  0  0
  -23.0608   -3.4948    6.6376 N   0  0  0  0  0  0  0  0  0  0  0  0
  -24.5653   -3.0460    8.3732 N   0  0  0  0  0  0  0  0  0  0  0  0
  -19.2848   -7.4618    6.5705 C   0  0  0  0  0  0  0  0  0  0  0  0
  -19.1335   -6.6893    7.7543 C   0  0  0  0  0  0  0  0  0  0  0  0
  -18.0059   -6.8988    8.5959 C   0  0  0  0  0  0  0  0  0  0  0  0
  -17.0344   -7.8780    8.2528 C   0  0  0  0  0  0  0  0  0  0  0  0
  -17.1888   -8.6487    7.0706 C   0  0  0  0  0  0  0  0  0  0  0  0
  -18.3132   -8.4397    6.2294 C   0  0  0  0  0  0  0  0  0  0  0  0
  2  4  1  0  0  0  0
  3  5  1  0  0  0  0
  4  7  1  0  0  0  0
  6  1  1  0  0  0  0
  7 10  1  0  0  0  0
  8  6  1  0  0  0  0
  8 11  1  0  0  0  0
  9  6  1  0  0  0  0
 10 13  1  0  0  0  0
 11 14  1  0  0  0  0
 12  9  1  0  0  0  0
 14 12  1  0  0  0  0
 14 15  1  0  0  0  0
 15 16  1  0  0  0  0
 15 17  1  0  0  0  0
 18  2  1  0  0  0  0
 18 23  2  0  0  0  0
 19  1  1  0  0  0  0
 19 18  1  0  0  0  0
 20 19  2  0  0  0  0
 21  3  1  0  0  0  0
 21 20  1  0  0  0  0
 22 21  2  0  0  0  0
 22 23  1  0  0  0  0
M  END
>  <CHROM.1>
178.62327566,-60.71332968,-107.47552582,-169.06171661,55.01199087,-114.19706168
-84.45421732,-42.82450829,-163.46045345,151.23056068,95.90083382,-20.55967685
-6.36725382,7.60782977,-2.88686669,0.49385590,-2.26189545

>  <Name>
1uui_lig

>  <RI>
0

>  <Rbt.Current_Directory>
/home/itssahil/PROJECTS/Mol_Feturizer/New_Systems/rnas/1uui

>  <Rbt.Executable>
rbdock ($Id: //depot/dev/client3/rdock/2013.1/src/exe/rbdock.cxx#4 $)

>  <Rbt.Library>
libRbt.so (2013.1, Build901 2013/11/27)

>  <Rbt.Parameter_File>
/export/apps/rDock/src/rDock_2013.1_src/data/scripts/dock_solv.prm

>  <Rbt.Receptor>
prm/blind_docking_60.prm

>  <SCORE>
-21.0739

>  <SCORE.INTER>
-19.3216

>  <SCORE.INTER.CONST>
1

>  <SCORE.INTER.POLAR>
-1.78709

>  <SCORE.INTER.ROT>
10

>  <SCORE.INTER.SOLV>
8.86226

>  <SCORE.INTER.VDW>
-20.1449

>  <SCORE.INTER.norm>
-0.840071

>  <SCORE.INTRA>
-2.80103

>  <SCORE.INTRA.DIHEDRAL>
-10.222

>  <SCORE.INTRA.DIHEDRAL.0>
23.4151

>  <SCORE.INTRA.POLAR>
0

>  <SCORE.INTRA.POLAR.0>
0

>  <SCORE.INTRA.REPUL>
0

>  <SCORE.INTRA.REPUL.0>
0

>  <SCORE.INTRA.SOLV>
-0.0833933

>  <SCORE.INTRA.SOLV.lig_0>
-17.3568

>  <SCORE.INTRA.VDW>
2.35165

>  <SCORE.INTRA.VDW.0>
1.0768

>  <SCORE.INTRA.norm>
-0.121784

>  <SCORE.RESTR>
1.04873

>  <SCORE.RESTR.CAVITY>
1.04873

>  <SCORE.RESTR.norm>
0.0455971

>  <SCORE.SYSTEM>
0

>  <SCORE.SYSTEM.CONST>
0

>  <SCORE.SYSTEM.DIHEDRAL>
0

>  <SCORE.SYSTEM.SOLV>
0

>  <SCORE.SYSTEM.norm>
0

>  <SCORE.heavy>
23

>  <SCORE.norm>
-0.916258

>  <RMSD>
14.247

$$$$
1uui_lig
 OpenBabel11021811413D
libRbt.so/2013.1/901 2013/11/27
 23 24  0  0  0  0  0  0  0  0999 V2000
  -19.8825   -9.4692    6.2247 C   0  0  0  0  0  0  0  0  0  0  0  0
  -19.7127   -8.3891    8.9184 O   0  0  0  0  0  0  0  0  0  0  0  0
  -17.1862   -5.4794    4.7166 O   0  0  0  0  0  0  0  0  0  0  0  0
  -20.3264   -7.4829    9.8437 C   0  0  0  0  0  0  0  0  0  0  0  0
  -18.0868   -4.4926    4.2076 C   0  0  0  0  0  0  0  0  0  0  0  0
  -21.1760   -9.1828    5.5217 N   0  0  0  0  0  0  0  0  0  0  0  0
  -21.4910   -6.7737    9.1510 C   0  0  0  0  0  0  0  0  0  0  0  0
  -21.8700  -10.4412    5.1351 C   0  0  0  0  0  0  0  0  0  0  0  0
  -20.9497   -8.3495    4.3114 C   0  0  0  0  0  0  0  0  0  0  0  0
  -22.3432   -6.0326   10.1861 C   0  0  0  0  0  0  0  0  0  0  0  0
  -21.0254  -11.2907    4.1703 C   0  0  0  0  0  0  0  0  0  0  0  0
  -20.0117   -9.0458    3.3106 C   0  0  0  0  0  0  0  0  0  0  0  0
  -23.3749   -5.2293    9.4927 N   0  0  0  0  0  0  0  0  0  0  0  0
  -19.8915  -10.5125    3.5801 N   0  0  0  0  0  0  0  0  0  0  0  0
  -18.7963  -11.2128    3.0412 C   0  0  0  0  0  0  0  0  0  0  0  0
  -17.5793  -11.1830    3.6553 N   0  0  0  0  0  0  0  0  0  0  0  0
  -18.8908  -11.8244    1.8261 N   0  0  0  0  0  0  0  0  0  0  0  0
  -19.0828   -7.6588    7.8619 C   0  0  0  0  0  0  0  0  0  0  0  0
  -19.1385   -8.1480    6.5282 C   0  0  0  0  0  0  0  0  0  0  0  0
  -18.5067   -7.4205    5.4815 C   0  0  0  0  0  0  0  0  0  0  0  0
  -17.8224   -6.2086    5.7701 C   0  0  0  0  0  0  0  0  0  0  0  0
  -17.7697   -5.7220    7.1026 C   0  0  0  0  0  0  0  0  0  0  0  0
  -18.3989   -6.4477    8.1482 C   0  0  0  0  0  0  0  0  0  0  0  0
  2  4  1  0  0  0  0
  3  5  1  0  0  0  0
  4  7  1  0  0  0  0
  6  1  1  0  0  0  0
  7 10  1  0  0  0  0
  8  6  1  0  0  0  0
  8 11  1  0  0  0  0
  9  6  1  0  0  0  0
 10 13  1  0  0  0  0
 11 14  1  0  0  0  0
 12  9  1  0  0  0  0
 14 12  1  0  0  0  0
 14 15  1  0  0  0  0
 15 16  1  0  0  0  0
 15 17  1  0  0  0  0
 18  2  1  0  0  0  0
 18 23  2  0  0  0  0
 19  1  1  0  0  0  0
 19 18  1  0  0  0  0
 20 19  2  0  0  0  0
 21  3  1  0  0  0  0
 21 20  1  0  0  0  0
 22 21  2  0  0  0  0
 22 23  1  0  0  0  0
M  END
>  <CHROM.1>
66.92916403,167.95681207,176.16247921,173.73978400,161.04176119,-110.49341191
105.33551873,88.11171007,-141.32421756,106.90179719,93.25067519,-19.74651297
-8.18329242,5.98977564,1.28447898,-0.68897260,-2.41927396

>  <Name>
1uui_lig

>  <RI>
0

>  <Rbt.Current_Directory>
/home/itssahil/PROJECTS/Mol_Feturizer/New_Systems/rnas/1uui

>  <Rbt.Executable>
rbdock ($Id: //depot/dev/client3/rdock/2013.1/src/exe/rbdock.cxx#4 $)

>  <Rbt.Library>
libRbt.so (2013.1, Build901 2013/11/27)

>  <Rbt.Parameter_File>
/export/apps/rDock/src/rDock_2013.1_src/data/scripts/dock_solv.prm

>  <Rbt.Receptor>
prm/blind_docking_60.prm

>  <SCORE>
-15.0992

>  <SCORE.INTER>
-12.0885

>  <SCORE.INTER.CONST>
1

>  <SCORE.INTER.POLAR>
-2.71746

>  <SCORE.INTER.ROT>
10

>  <SCORE.INTER.SOLV>
7.2415

>  <SCORE.INTER.VDW>
-11.6813

>  <SCORE.INTER.norm>
-0.525586

>  <SCORE.INTRA>
-4.2464

>  <SCORE.INTRA.DIHEDRAL>
-10.7206

>  <SCORE.INTRA.DIHEDRAL.0>
23.4151

>  <SCORE.INTRA.POLAR>
0

>  <SCORE.INTRA.POLAR.0>
0

>  <SCORE.INTRA.REPUL>
0

>  <SCORE.INTRA.REPUL.0>
0

>  <SCORE.INTRA.SOLV>
0.10199

>  <SCORE.INTRA.SOLV.lig_0>
-17.3568

>  <SCORE.INTRA.VDW>
1.06289

>  <SCORE.INTRA.VDW.0>
1.0768

>  <SCORE.INTRA.norm>
-0.184626

>  <SCORE.RESTR>
1.23567

>  <SCORE.RESTR.CAVITY>
1.23567

>  <SCORE.RESTR.norm>
0.0537246

>  <SCORE.SYSTEM>
0

>  <SCORE.SYSTEM.CONST>
0

>  <SCORE.SYSTEM.DIHEDRAL>
0

>  <SCORE.SYSTEM.SOLV>
0

>  <SCORE.SYSTEM.norm>
0

>  <SCORE.heavy>
23

>  <SCORE.norm>
-0.656487

>  <RMSD>
14.247

$$$$
1uui_lig
 OpenBabel11021811413D
libRbt.so/2013.1/901 2013/11/27
 23 24  0  0  0  0  0  0  0  0999 V2000
  -19.3756   -7.0902    9.4852 C   0  0  0  0  0  0  0  0  0  0  0  0
  -16.5994   -7.6556    8.8336 O   0  0  0  0  0  0  0  0  0  0  0  0
  -20.6255   -9.7380    5.3756 O   0  0  0  0  0  0  0  0  0  0  0  0
  -15.9030   -8.7323    9.4737 C   0  0  0  0  0  0  0  0  0  0  0  0
  -20.7186  -11.1535    5.5536 C   0  0  0  0  0  0  0  0  0  0  0  0
  -19.7631   -5.7013    9.0722 N   0  0  0  0  0  0  0  0  0  0  0  0
  -16.7358   -9.2345   10.6541 C   0  0  0  0  0  0  0  0  0  0  0  0
  -19.5589   -4.7317   10.1825 C   0  0  0  0  0  0  0  0  0  0  0  0
  -21.1812   -5.6554    8.6283 C   0  0  0  0  0  0  0  0  0  0  0  0
  -16.6125   -8.2635   11.8327 C   0  0  0  0  0  0  0  0  0  0  0  0
  -20.4144   -5.0779   11.4130 C   0  0  0  0  0  0  0  0  0  0  0  0
  -22.1401   -6.1014    9.7454 C   0  0  0  0  0  0  0  0  0  0  0  0
  -15.6124   -8.7786   12.7945 N   0  0  0  0  0  0  0  0  0  0  0  0
  -21.4878   -6.0699   11.0914 N   0  0  0  0  0  0  0  0  0  0  0  0
  -22.0635   -6.8103   12.1407 C   0  0  0  0  0  0  0  0  0  0  0  0
  -21.3158   -7.1965   13.2134 N   0  0  0  0  0  0  0  0  0  0  0  0
  -23.3429   -7.2726   12.0461 N   0  0  0  0  0  0  0  0  0  0  0  0
  -17.6111   -8.1738    7.9653 C   0  0  0  0  0  0  0  0  0  0  0  0
  -18.9828   -7.9239    8.2435 C   0  0  0  0  0  0  0  0  0  0  0  0
  -19.9856   -8.4452    7.3796 C   0  0  0  0  0  0  0  0  0  0  0  0
  -19.6157   -9.2131    6.2421 C   0  0  0  0  0  0  0  0  0  0  0  0
  -18.2451   -9.4598    5.9663 C   0  0  0  0  0  0  0  0  0  0  0  0
  -17.2434   -8.9411    6.8284 C   0  0  0  0  0  0  0  0  0  0  0  0
  2  4  1  0  0  0  0
  3  5  1  0  0  0  0
  4  7  1  0  0  0  0
  6  1  1  0  0  0  0
  7 10  1  0  0  0  0
  8  6  1  0  0  0  0
  8 11  1  0  0  0  0
  9  6  1  0  0  0  0
 10 13  1  0  0  0  0
 11 14  1  0  0  0  0
 12  9  1  0  0  0  0
 14 12  1  0  0  0  0
 14 15  1  0  0  0  0
 15 16  1  0  0  0  0
 15 17  1  0  0  0  0
 18  2  1  0  0  0  0
 18 23  2  0  0  0  0
 19  1  1  0  0  0  0
 19 18  1  0  0  0  0
 20 19  2  0  0  0  0
 21  3  1  0  0  0  0
 21 20  1  0  0  0  0
 22 21  2  0  0  0  0
 22 23  1  0  0  0  0
M  END
>  <CHROM.1>
-80.43658872,-76.63932605,-154.65217227,-98.69144860,58.21495164,-34.43599045
-16.86436855,120.96691806,114.86844131,103.28199013,-107.94745603,-19.36021429
-7.71447008,9.39598867,2.01706114,-0.31357902,1.16537615

>  <Name>
1uui_lig

>  <RI>
0

>  <Rbt.Current_Directory>
/home/itssahil/PROJECTS/Mol_Feturizer/New_Systems/rnas/1uui

>  <Rbt.Executable>
rbdock ($Id: //depot/dev/client3/rdock/2013.1/src/exe/rbdock.cxx#4 $)

>  <Rbt.Library>
libRbt.so (2013.1, Build901 2013/11/27)

>  <Rbt.Parameter_File>
/export/apps/rDock/src/rDock_2013.1_src/data/scripts/dock_solv.prm

>  <Rbt.Receptor>
prm/blind_docking_80.prm

>  <SCORE>
-28.6609

>  <SCORE.INTER>
-25.2463

>  <SCORE.INTER.CONST>
1

>  <SCORE.INTER.POLAR>
-2.55429

>  <SCORE.INTER.ROT>
10

>  <SCORE.INTER.SOLV>
7.26445

>  <SCORE.INTER.VDW>
-21.0047

>  <SCORE.INTER.norm>
-1.09767

>  <SCORE.INTRA>
-3.42541

>  <SCORE.INTRA.DIHEDRAL>
-2.58864

>  <SCORE.INTRA.DIHEDRAL.0>
23.4151

>  <SCORE.INTRA.POLAR>
0

>  <SCORE.INTRA.POLAR.0>
0

>  <SCORE.INTRA.REPUL>
0

>  <SCORE.INTRA.REPUL.0>
0

>  <SCORE.INTRA.SOLV>
0.108571

>  <SCORE.INTRA.SOLV.lig_0>
-17.3568

>  <SCORE.INTRA.VDW>
-2.18538

>  <SCORE.INTRA.VDW.0>
1.0768

>  <SCORE.INTRA.norm>
-0.148931

>  <SCORE.RESTR>
0.0108635

>  <SCORE.RESTR.CAVITY>
0.0108635

>  <SCORE.RESTR.norm>
0.000472326

>  <SCORE.SYSTEM>
0

>  <SCORE.SYSTEM.CONST>
0

>  <SCORE.SYSTEM.DIHEDRAL>
0

>  <SCORE.SYSTEM.SOLV>
0

>  <SCORE.SYSTEM.norm>
0

>  <SCORE.heavy>
23

>  <SCORE.norm>
-1.24612

>  <RMSD>
14.247

$$$$
1uui_lig
 OpenBabel11021811413D
libRbt.so/2013.1/901 2013/11/27
 23 24  0  0  0  0  0  0  0  0999 V2000
  -19.2873   -7.4769    9.2805 C   0  0  0  0  0  0  0  0  0  0  0  0
  -16.5152   -7.8633    8.4943 O   0  0  0  0  0  0  0  0  0  0  0  0
  -20.5603  -10.2322    5.2494 O   0  0  0  0  0  0  0  0  0  0  0  0
  -16.1334   -8.7699    9.5365 C   0  0  0  0  0  0  0  0  0  0  0  0
  -20.5348  -11.6515    5.4195 C   0  0  0  0  0  0  0  0  0  0  0  0
  -19.4948   -6.0368    8.9167 N   0  0  0  0  0  0  0  0  0  0  0  0
  -16.5676   -8.1930   10.8848 C   0  0  0  0  0  0  0  0  0  0  0  0
  -19.2945   -5.1487   10.0939 C   0  0  0  0  0  0  0  0  0  0  0  0
  -20.8557   -5.8207    8.3584 C   0  0  0  0  0  0  0  0  0  0  0  0
  -15.8683   -8.9412   12.0242 C   0  0  0  0  0  0  0  0  0  0  0  0
  -20.2872   -5.4623   11.2263 C   0  0  0  0  0  0  0  0  0  0  0  0
  -21.9506   -6.2170    9.3636 C   0  0  0  0  0  0  0  0  0  0  0  0
  -15.8252   -8.0802   13.2272 N   0  0  0  0  0  0  0  0  0  0  0  0
  -21.4216   -6.3193   10.7593 N   0  0  0  0  0  0  0  0  0  0  0  0
  -22.1603   -7.0450   11.7123 C   0  0  0  0  0  0  0  0  0  0  0  0
  -22.7630   -8.2216   11.3786 N   0  0  0  0  0  0  0  0  0  0  0  0
  -22.4025   -6.5241   12.9490 N   0  0  0  0  0  0  0  0  0  0  0  0
  -17.5321   -8.4535    7.6795 C   0  0  0  0  0  0  0  0  0  0  0  0
  -18.9018   -8.2924    8.0244 C   0  0  0  0  0  0  0  0  0  0  0  0
  -19.9094   -8.8850    7.2136 C   0  0  0  0  0  0  0  0  0  0  0  0
  -19.5459   -9.6355    6.0625 C   0  0  0  0  0  0  0  0  0  0  0  0
  -18.1773   -9.7935    5.7200 C   0  0  0  0  0  0  0  0  0  0  0  0
  -17.1709   -9.2035    6.5291 C   0  0  0  0  0  0  0  0  0  0  0  0
  2  4  1  0  0  0  0
  3  5  1  0  0  0  0
  4  7  1  0  0  0  0
  6  1  1  0  0  0  0
  7 10  1  0  0  0  0
  8  6  1  0  0  0  0
  8 11  1  0  0  0  0
  9  6  1  0  0  0  0
 10 13  1  0  0  0  0
 11 14  1  0  0  0  0
 12  9  1  0  0  0  0
 14 12  1  0  0  0  0
 14 15  1  0  0  0  0
 15 16  1  0  0  0  0
 15 17  1  0  0  0  0
 18  2  1  0  0  0  0
 18 23  2  0  0  0  0
 19  1  1  0  0  0  0
 19 18  1  0  0  0  0
 20 19  2  0  0  0  0
 21  3  1  0  0  0  0
 21 20  1  0  0  0  0
 22 21  2  0  0  0  0
 22 23  1  0  0  0  0
M  END
>  <CHROM.1>
-112.79463935,-165.45482485,-155.93062664,156.70186651,-175.64368478,-151.10415252
14.40162071,81.82913979,88.64234752,90.87273537,-108.98142418,-19.28223599
-7.91149184,9.22401094,1.82893084,-0.23600841,1.10569531

>  <Name>
1uui_lig

>  <RI>
0

>  <Rbt.Current_Directory>
/home/itssahil/PROJECTS/Mol_Feturizer/New_Systems/rnas/1uui

>  <Rbt.Executable>
rbdock ($Id: //depot/dev/client3/rdock/2013.1/src/exe/rbdock.cxx#4 $)

>  <Rbt.Library>
libRbt.so (2013.1, Build901 2013/11/27)

>  <Rbt.Parameter_File>
/export/apps/rDock/src/rDock_2013.1_src/data/scripts/dock_solv.prm

>  <Rbt.Receptor>
prm/blind_docking_100.prm

>  <SCORE>
-21.0943

>  <SCORE.INTER>
-18.6907

>  <SCORE.INTER.CONST>
1

>  <SCORE.INTER.POLAR>
-2.01975

>  <SCORE.INTER.ROT>
10

>  <SCORE.INTER.SOLV>
7.16493

>  <SCORE.INTER.VDW>
-18.3829

>  <SCORE.INTER.norm>
-0.812638

>  <SCORE.INTRA>
-2.52918

>  <SCORE.INTRA.DIHEDRAL>
0.822114

>  <SCORE.INTRA.DIHEDRAL.0>
23.4151

>  <SCORE.INTRA.POLAR>
0

>  <SCORE.INTRA.POLAR.0>
0

>  <SCORE.INTRA.REPUL>
0

>  <SCORE.INTRA.REPUL.0>
0

>  <SCORE.INTRA.SOLV>
0.0315779

>  <SCORE.INTRA.SOLV.lig_0>
-17.3568

>  <SCORE.INTRA.VDW>
-2.95603

>  <SCORE.INTRA.VDW.0>
1.0768

>  <SCORE.INTRA.norm>
-0.109964

>  <SCORE.RESTR>
0.125576

>  <SCORE.RESTR.CAVITY>
0.125576

>  <SCORE.RESTR.norm>
0.00545984

>  <SCORE.SYSTEM>
0

>  <SCORE.SYSTEM.CONST>
0

>  <SCORE.SYSTEM.DIHEDRAL>
0

>  <SCORE.SYSTEM.SOLV>
0

>  <SCORE.SYSTEM.norm>
0

>  <SCORE.heavy>
23

>  <SCORE.norm>
-0.917143

>  <RMSD>
14.263

$$$$
1uui_lig
 OpenBabel11021811413D
libRbt.so/2013.1/901 2013/11/27
 23 24  0  0  0  0  0  0  0  0999 V2000
  -18.7998   -6.4198    8.3330 C   0  0  0  0  0  0  0  0  0  0  0  0
  -17.7135   -6.4184   11.0295 O   0  0  0  0  0  0  0  0  0  0  0  0
  -23.3778   -6.1533   10.4385 O   0  0  0  0  0  0  0  0  0  0  0  0
  -17.3629   -7.4563   11.9536 C   0  0  0  0  0  0  0  0  0  0  0  0
  -23.8448   -7.3233    9.7625 C   0  0  0  0  0  0  0  0  0  0  0  0
  -19.4573   -5.7291    7.1754 N   0  0  0  0  0  0  0  0  0  0  0  0
  -16.3181   -8.3680   11.3083 C   0  0  0  0  0  0  0  0  0  0  0  0
  -20.4661   -6.6086    6.5246 C   0  0  0  0  0  0  0  0  0  0  0  0
  -18.4493   -5.3020    6.1694 C   0  0  0  0  0  0  0  0  0  0  0  0
  -16.8242   -8.8654    9.9505 C   0  0  0  0  0  0  0  0  0  0  0  0
  -19.8331   -7.8943    5.9660 C   0  0  0  0  0  0  0  0  0  0  0  0
  -17.6564   -6.4990    5.6175 C   0  0  0  0  0  0  0  0  0  0  0  0
  -15.7185   -9.5291    9.2243 N   0  0  0  0  0  0  0  0  0  0  0  0
  -18.3413   -7.8007    5.8907 N   0  0  0  0  0  0  0  0  0  0  0  0
  -17.5897   -8.9887    5.8248 C   0  0  0  0  0  0  0  0  0  0  0  0
  -16.9241   -9.3302    4.6850 N   0  0  0  0  0  0  0  0  0  0  0  0
  -17.6191   -9.8887    6.8489 N   0  0  0  0  0  0  0  0  0  0  0  0
  -19.1346   -6.3558   10.8789 C   0  0  0  0  0  0  0  0  0  0  0  0
  -19.7121   -6.3532    9.5798 C   0  0  0  0  0  0  0  0  0  0  0  0
  -21.1258   -6.2864    9.4348 C   0  0  0  0  0  0  0  0  0  0  0  0
  -21.9567   -6.2223   10.5862 C   0  0  0  0  0  0  0  0  0  0  0  0
  -21.3770   -6.2264   11.8821 C   0  0  0  0  0  0  0  0  0  0  0  0
  -19.9663   -6.2920   12.0280 C   0  0  0  0  0  0  0  0  0  0  0  0
  2  4  1  0  0  0  0
  3  5  1  0  0  0  0
  4  7  1  0  0  0  0
  6  1  1  0  0  0  0
  7 10  1  0  0  0  0
  8  6  1  0  0  0  0
  8 11  1  0  0  0  0
  9  6  1  0  0  0  0
 10 13  1  0  0  0  0
 11 14  1  0  0  0  0
 12  9  1  0  0  0  0
 14 12  1  0  0  0  0
 14 15  1  0  0  0  0
 15 16  1  0  0  0  0
 15 17  1  0  0  0  0
 18  2  1  0  0  0  0
 18 23  2  0  0  0  0
 19  1  1  0  0  0  0
 19 18  1  0  0  0  0
 20 19  2  0  0  0  0
 21  3  1  0  0  0  0
 21 20  1  0  0  0  0
 22 21  2  0  0  0  0
 22 23  1  0  0  0  0
M  END
>  <CHROM.1>
128.13728537,-53.45796011,-80.36072702,169.34141726,-59.70667553,110.73707787
7.74274706,178.08494014,-129.59147339,-151.09133018,61.02557704,-19.05593054
-7.28771721,8.69018225,0.80970616,0.40863191,-1.64196721

>  <Name>
1uui_lig

>  <RI>
0

>  <Rbt.Current_Directory>
/home/itssahil/PROJECTS/Mol_Feturizer/New_Systems/rnas/1uui

>  <Rbt.Executable>
rbdock ($Id: //depot/dev/client3/rdock/2013.1/src/exe/rbdock.cxx#4 $)

>  <Rbt.Library>
libRbt.so (2013.1, Build901 2013/11/27)

>  <Rbt.Parameter_File>
/export/apps/rDock/src/rDock_2013.1_src/data/scripts/dock_solv.prm

>  <Rbt.Receptor>
prm/blind_docking_80.prm

>  <SCORE>
-27.3199

>  <SCORE.INTER>
-21.5945

>  <SCORE.INTER.CONST>
1

>  <SCORE.INTER.POLAR>
-2.31425

>  <SCORE.INTER.ROT>
10

>  <SCORE.INTER.SOLV>
8.39114

>  <SCORE.INTER.VDW>
-19.7459

>  <SCORE.INTER.norm>
-0.938891

>  <SCORE.INTRA>
-5.83688

>  <SCORE.INTRA.DIHEDRAL>
-4.07817

>  <SCORE.INTRA.DIHEDRAL.0>
23.4151

>  <SCORE.INTRA.POLAR>
-0.937346

>  <SCORE.INTRA.POLAR.0>
0

>  <SCORE.INTRA.REPUL>
0

>  <SCORE.INTRA.REPUL.0>
0

>  <SCORE.INTRA.SOLV>
1.0972

>  <SCORE.INTRA.SOLV.lig_0>
-17.3568

>  <SCORE.INTRA.VDW>
-1.15942

>  <SCORE.INTRA.VDW.0>
1.0768

>  <SCORE.INTRA.norm>
-0.253777

>  <SCORE.RESTR>
0.11147

>  <SCORE.RESTR.CAVITY>
0.11147

>  <SCORE.RESTR.norm>
0.0048465

>  <SCORE.SYSTEM>
0

>  <SCORE.SYSTEM.CONST>
0

>  <SCORE.SYSTEM.DIHEDRAL>
0

>  <SCORE.SYSTEM.SOLV>
0

>  <SCORE.SYSTEM.norm>
0

>  <SCORE.heavy>
23

>  <SCORE.norm>
-1.18782

>  <RMSD>
14.271

$$$$
1uui_lig
 OpenBabel11021811413D
libRbt.so/2013.1/901 2013/11/27
 23 24  0  0  0  0  0  0  0  0999 V2000
  -21.1571   -7.6711    8.9110 C   0  0  0  0  0  0  0  0  0  0  0  0
  -20.7589   -6.4415    6.3070 O   0  0  0  0  0  0  0  0  0  0  0  0
  -16.6639   -9.8803    8.2844 O   0  0  0  0  0  0  0  0  0  0  0  0
  -21.7545   -7.2051    5.6144 C   0  0  0  0  0  0  0  0  0  0  0  0
  -15.9030   -9.1900    9.2787 C   0  0  0  0  0  0  0  0  0  0  0  0
  -20.8060   -7.5794   10.3662 N   0  0  0  0  0  0  0  0  0  0  0  0
  -21.1282   -7.8269    4.3653 C   0  0  0  0  0  0  0  0  0  0  0  0
  -22.0142   -7.3283   11.1980 C   0  0  0  0  0  0  0  0  0  0  0  0
  -19.8075   -6.5041   10.6050 C   0  0  0  0  0  0  0  0  0  0  0  0
  -20.4216   -6.7465    3.5405 C   0  0  0  0  0  0  0  0  0  0  0  0
  -22.7014   -6.0028   10.8284 C   0  0  0  0  0  0  0  0  0  0  0  0
  -20.3358   -5.1301   10.1586 C   0  0  0  0  0  0  0  0  0  0  0  0
  -19.7842   -7.3663    2.3573 N   0  0  0  0  0  0  0  0  0  0  0  0
  -21.8226   -5.1271    9.9916 N   0  0  0  0  0  0  0  0  0  0  0  0
  -22.4155   -4.1108    9.2196 C   0  0  0  0  0  0  0  0  0  0  0  0
  -21.7584   -2.9390    8.9868 N   0  0  0  0  0  0  0  0  0  0  0  0
  -23.7088   -4.2193    8.8011 N   0  0  0  0  0  0  0  0  0  0  0  0
  -19.7345   -7.3077    6.8035 C   0  0  0  0  0  0  0  0  0  0  0  0
  -19.8843   -7.9313    8.0723 C   0  0  0  0  0  0  0  0  0  0  0  0
  -18.8609   -8.7884    8.5639 C   0  0  0  0  0  0  0  0  0  0  0  0
  -17.6928   -9.0196    7.7877 C   0  0  0  0  0  0  0  0  0  0  0  0
  -17.5467   -8.3965    6.5205 C   0  0  0  0  0  0  0  0  0  0  0  0
  -18.5670   -7.5400    6.0293 C   0  0  0  0  0  0  0  0  0  0  0  0
  2  4  1  0  0  0  0
  3  5  1  0  0  0  0
  4  7  1  0  0  0  0
  6  1  1  0  0  0  0
  7 10  1  0  0  0  0
  8  6  1  0  0  0  0
  8 11  1  0  0  0  0
  9  6  1  0  0  0  0
 10 13  1  0  0  0  0
 11 14  1  0  0  0  0
 12  9  1  0  0  0  0
 14 12  1  0  0  0  0
 14 15  1  0  0  0  0
 15 16  1  0  0  0  0
 15 17  1  0  0  0  0
 18  2  1  0  0  0  0
 18 23  2  0  0  0  0
 19  1  1  0  0  0  0
 19 18  1  0  0  0  0
 20 19  2  0  0  0  0
 21  3  1  0  0  0  0
 21 20  1  0  0  0  0
 22 21  2  0  0  0  0
 22 23  1  0  0  0  0
M  END
>  <CHROM.1>
-65.51813363,-51.92536310,179.97423459,178.25936462,81.50599236,147.48374844
109.43027400,128.19059871,-86.69713341,-142.17137569,-76.72209540,-20.25435316
-6.93086281,7.91096486,-2.38785071,0.69748797,-1.62128711

>  <Name>
1uui_lig

>  <RI>
0

>  <Rbt.Current_Directory>
/home/itssahil/PROJECTS/Mol_Feturizer/New_Systems/rnas/1uui

>  <Rbt.Executable>
rbdock ($Id: //depot/dev/client3/rdock/2013.1/src/exe/rbdock.cxx#4 $)

>  <Rbt.Library>
libRbt.so (2013.1, Build901 2013/11/27)

>  <Rbt.Parameter_File>
/export/apps/rDock/src/rDock_2013.1_src/data/scripts/dock_solv.prm

>  <Rbt.Receptor>
prm/blind_docking_60.prm

>  <SCORE>
-15.3743

>  <SCORE.INTER>
-10.6974

>  <SCORE.INTER.CONST>
1

>  <SCORE.INTER.POLAR>
-1.17703

>  <SCORE.INTER.ROT>
10

>  <SCORE.INTER.SOLV>
6.36727

>  <SCORE.INTER.VDW>
-15.5973

>  <SCORE.INTER.norm>
-0.465106

>  <SCORE.INTRA>
-4.68168

>  <SCORE.INTRA.DIHEDRAL>
-8.43409

>  <SCORE.INTRA.DIHEDRAL.0>
23.4151

>  <SCORE.INTRA.POLAR>
0

>  <SCORE.INTRA.POLAR.0>
0

>  <SCORE.INTRA.REPUL>
0

>  <SCORE.INTRA.REPUL.0>
0

>  <SCORE.INTRA.SOLV>
0.252182

>  <SCORE.INTRA.SOLV.lig_0>
-17.3568

>  <SCORE.INTRA.VDW>
-0.590724

>  <SCORE.INTRA.VDW.0>
1.0768

>  <SCORE.INTRA.norm>
-0.203551

>  <SCORE.RESTR>
0.00478743

>  <SCORE.RESTR.CAVITY>
0.00478743

>  <SCORE.RESTR.norm>
0.000208149

>  <SCORE.SYSTEM>
0

>  <SCORE.SYSTEM.CONST>
0

>  <SCORE.SYSTEM.DIHEDRAL>
0

>  <SCORE.SYSTEM.SOLV>
0

>  <SCORE.SYSTEM.norm>
0

>  <SCORE.heavy>
23

>  <SCORE.norm>
-0.668449

>  <RMSD>
14.274

$$$$
1uui_lig
 OpenBabel11021811413D
libRbt.so/2013.1/901 2013/11/27
 23 24  0  0  0  0  0  0  0  0999 V2000
  -19.2742   -7.1762    7.4199 C   0  0  0  0  0  0  0  0  0  0  0  0
  -18.3062   -7.6438   10.1210 O   0  0  0  0  0  0  0  0  0  0  0  0
  -22.5905   -3.9466    9.4284 O   0  0  0  0  0  0  0  0  0  0  0  0
  -17.4683   -7.2209   11.2041 C   0  0  0  0  0  0  0  0  0  0  0  0
  -22.2063   -2.9449    8.4833 C   0  0  0  0  0  0  0  0  0  0  0  0
  -19.7694   -6.5497    6.1504 N   0  0  0  0  0  0  0  0  0  0  0  0
  -16.6460   -8.4135   11.6949 C   0  0  0  0  0  0  0  0  0  0  0  0
  -21.0989   -7.0946    5.7627 C   0  0  0  0  0  0  0  0  0  0  0  0
  -18.8033   -6.7632    5.0406 C   0  0  0  0  0  0  0  0  0  0  0  0
  -16.0434   -8.1040   13.0690 C   0  0  0  0  0  0  0  0  0  0  0  0
  -21.0479   -8.6114    5.5123 C   0  0  0  0  0  0  0  0  0  0  0  0
  -18.5715   -8.2596    4.7704 C   0  0  0  0  0  0  0  0  0  0  0  0
  -15.2218   -9.2505   13.5175 N   0  0  0  0  0  0  0  0  0  0  0  0
  -19.6446   -9.1118    5.3710 N   0  0  0  0  0  0  0  0  0  0  0  0
  -19.3895  -10.4812    5.5712 C   0  0  0  0  0  0  0  0  0  0  0  0
  -18.3394  -10.8898    6.3388 N   0  0  0  0  0  0  0  0  0  0  0  0
  -20.1019  -11.4280    4.8961 N   0  0  0  0  0  0  0  0  0  0  0  0
  -19.3837   -6.7194    9.9452 C   0  0  0  0  0  0  0  0  0  0  0  0
  -19.8903   -6.4578    8.6428 C   0  0  0  0  0  0  0  0  0  0  0  0
  -20.9590   -5.5343    8.4724 C   0  0  0  0  0  0  0  0  0  0  0  0
  -21.5173   -4.8762    9.6018 C   0  0  0  0  0  0  0  0  0  0  0  0
  -21.0100   -5.1405   10.9011 C   0  0  0  0  0  0  0  0  0  0  0  0
  -19.9428   -6.0611   11.0723 C   0  0  0  0  0  0  0  0  0  0  0  0
  2  4  1  0  0  0  0
  3  5  1  0  0  0  0
  4  7  1  0  0  0  0
  6  1  1  0  0  0  0
  7 10  1  0  0  0  0
  8  6  1  0  0  0  0
  8 11  1  0  0  0  0
  9  6  1  0  0  0  0
 10 13  1  0  0  0  0
 11 14  1  0  0  0  0
 12  9  1  0  0  0  0
 14 12  1  0  0  0  0
 14 15  1  0  0  0  0
 15 16  1  0  0  0  0
 15 17  1  0  0  0  0
 18  2  1  0  0  0  0
 18 23  2  0  0  0  0
 19  1  1  0  0  0  0
 19 18  1  0  0  0  0
 20 19  2  0  0  0  0
 21  3  1  0  0  0  0
 21 20  1  0  0  0  0
 22 21  2  0  0  0  0
 22 23  1  0  0  0  0
M  END
>  <CHROM.1>
160.36802328,-164.46178098,-83.14619570,-178.53853136,-51.04133714,-133.97582950
-76.47042448,-70.42690763,146.06434687,-168.69935875,-54.60295656,-19.39624093
-7.39709789,8.38983312,2.08649416,0.81417903,-2.15108047

>  <Name>
1uui_lig

>  <RI>
0

>  <Rbt.Current_Directory>
/home/itssahil/PROJECTS/Mol_Feturizer/New_Systems/rnas/1uui

>  <Rbt.Executable>
rbdock ($Id: //depot/dev/client3/rdock/2013.1/src/exe/rbdock.cxx#4 $)

>  <Rbt.Library>
libRbt.so (2013.1, Build901 2013/11/27)

>  <Rbt.Parameter_File>
/export/apps/rDock/src/rDock_2013.1_src/data/scripts/dock_solv.prm

>  <Rbt.Receptor>
prm/blind_docking_100.prm

>  <SCORE>
-24.3308

>  <SCORE.INTER>
-21.2919

>  <SCORE.INTER.CONST>
1

>  <SCORE.INTER.POLAR>
-3.37433

>  <SCORE.INTER.ROT>
10

>  <SCORE.INTER.SOLV>
5.1608

>  <SCORE.INTER.VDW>
-14.9337

>  <SCORE.INTER.norm>
-0.925734

>  <SCORE.INTRA>
-3.57066

>  <SCORE.INTRA.DIHEDRAL>
-10.311

>  <SCORE.INTRA.DIHEDRAL.0>
23.4151

>  <SCORE.INTRA.POLAR>
0

>  <SCORE.INTRA.POLAR.0>
0

>  <SCORE.INTRA.REPUL>
0

>  <SCORE.INTRA.REPUL.0>
0

>  <SCORE.INTRA.SOLV>
-0.127482

>  <SCORE.INTRA.SOLV.lig_0>
-17.3568

>  <SCORE.INTRA.VDW>
1.64858

>  <SCORE.INTRA.VDW.0>
1.0768

>  <SCORE.INTRA.norm>
-0.155246

>  <SCORE.RESTR>
0.531708

>  <SCORE.RESTR.CAVITY>
0.531708

>  <SCORE.RESTR.norm>
0.0231177

>  <SCORE.SYSTEM>
0

>  <SCORE.SYSTEM.CONST>
0

>  <SCORE.SYSTEM.DIHEDRAL>
0

>  <SCORE.SYSTEM.SOLV>
0

>  <SCORE.SYSTEM.norm>
0

>  <SCORE.heavy>
23

>  <SCORE.norm>
-1.05786

>  <RMSD>
14.279

$$$$
1uui_lig
 OpenBabel11021811413D
libRbt.so/2013.1/901 2013/11/27
 23 24  0  0  0  0  0  0  0  0999 V2000
  -20.0636   -6.5540    7.7370 C   0  0  0  0  0  0  0  0  0  0  0  0
  -20.1280   -8.3114    5.4221 O   0  0  0  0  0  0  0  0  0  0  0  0
  -15.6113   -8.6321    8.8863 O   0  0  0  0  0  0  0  0  0  0  0  0
  -20.9477   -9.4776    5.5703 C   0  0  0  0  0  0  0  0  0  0  0  0
  -16.0269   -9.0907   10.1751 C   0  0  0  0  0  0  0  0  0  0  0  0
  -19.5349   -5.3806    8.5071 N   0  0  0  0  0  0  0  0  0  0  0  0
  -21.9089   -9.5670    4.3839 C   0  0  0  0  0  0  0  0  0  0  0  0
  -19.2207   -5.7551    9.9127 C   0  0  0  0  0  0  0  0  0  0  0  0
  -20.5092   -4.2575    8.4992 C   0  0  0  0  0  0  0  0  0  0  0  0
  -21.1273   -9.8497    3.0969 C   0  0  0  0  0  0  0  0  0  0  0  0
  -20.4658   -6.2503   10.6680 C   0  0  0  0  0  0  0  0  0  0  0  0
  -21.8528   -4.6678    9.1257 C   0  0  0  0  0  0  0  0  0  0  0  0
  -20.3598   -8.6447    2.7105 N   0  0  0  0  0  0  0  0  0  0  0  0
  -21.7330   -5.9126    9.9469 N   0  0  0  0  0  0  0  0  0  0  0  0
  -22.8992   -6.6404   10.2482 C   0  0  0  0  0  0  0  0  0  0  0  0
  -23.6555   -7.1878    9.2545 N   0  0  0  0  0  0  0  0  0  0  0  0
  -23.3716   -6.7004   11.5260 N   0  0  0  0  0  0  0  0  0  0  0  0
  -18.9976   -8.3928    6.2948 C   0  0  0  0  0  0  0  0  0  0  0  0
  -18.9212   -7.5528    7.4392 C   0  0  0  0  0  0  0  0  0  0  0  0
  -17.7929   -7.6342    8.3018 C   0  0  0  0  0  0  0  0  0  0  0  0
  -16.7460   -8.5530    8.0188 C   0  0  0  0  0  0  0  0  0  0  0  0
  -16.8257   -9.3913    6.8760 C   0  0  0  0  0  0  0  0  0  0  0  0
  -17.9508   -9.3102    6.0138 C   0  0  0  0  0  0  0  0  0  0  0  0
  2  4  1  0  0  0  0
  3  5  1  0  0  0  0
  4  7  1  0  0  0  0
  6  1  1  0  0  0  0
  7 10  1  0  0  0  0
  8  6  1  0  0  0  0
  8 11  1  0  0  0  0
  9  6  1  0  0  0  0
 10 13  1  0  0  0  0
 11 14  1  0  0  0  0
 12  9  1  0  0  0  0
 14 12  1  0  0  0  0
 14 15  1  0  0  0  0
 15 16  1  0  0  0  0
 15 17  1  0  0  0  0
 18  2  1  0  0  0  0
 18 23  2  0  0  0  0
 19  1  1  0  0  0  0
 19 18  1  0  0  0  0
 20 19  2  0  0  0  0
 21  3  1  0  0  0  0
 21 20  1  0  0  0  0
 22 21  2  0  0  0  0
 22 23  1  0  0  0  0
M  END
>  <CHROM.1>
-164.25425457,67.47586816,-72.62696662,-71.23103345,49.89725780,-129.97888492
117.26214406,-57.12836911,-108.41061389,-152.63224114,64.40305330,-19.90783497
-7.54265233,7.76039032,1.97091338,-0.25816048,1.11711174

>  <Name>
1uui_lig

>  <RI>
0

>  <Rbt.Current_Directory>
/home/itssahil/PROJECTS/Mol_Feturizer/New_Systems/rnas/1uui

>  <Rbt.Executable>
rbdock ($Id: //depot/dev/client3/rdock/2013.1/src/exe/rbdock.cxx#4 $)

>  <Rbt.Library>
libRbt.so (2013.1, Build901 2013/11/27)

>  <Rbt.Parameter_File>
/export/apps/rDock/src/rDock_2013.1_src/data/scripts/dock_solv.prm

>  <Rbt.Receptor>
prm/blind_docking_60.prm

>  <SCORE>
-30.3259

>  <SCORE.INTER>
-23.5645

>  <SCORE.INTER.CONST>
1

>  <SCORE.INTER.POLAR>
-3.12934

>  <SCORE.INTER.ROT>
10

>  <SCORE.INTER.SOLV>
7.79318

>  <SCORE.INTER.VDW>
-18.1429

>  <SCORE.INTER.norm>
-1.02454

>  <SCORE.INTRA>
-6.84294

>  <SCORE.INTRA.DIHEDRAL>
-8.33309

>  <SCORE.INTRA.DIHEDRAL.0>
23.4151

>  <SCORE.INTRA.POLAR>
-0.683609

>  <SCORE.INTRA.POLAR.0>
0

>  <SCORE.INTRA.REPUL>
0

>  <SCORE.INTRA.REPUL.0>
0

>  <SCORE.INTRA.SOLV>
0.514997

>  <SCORE.INTRA.SOLV.lig_0>
-17.3568

>  <SCORE.INTRA.VDW>
-0.609623

>  <SCORE.INTRA.VDW.0>
1.0768

>  <SCORE.INTRA.norm>
-0.297519

>  <SCORE.RESTR>
0.0815853

>  <SCORE.RESTR.CAVITY>
0.0815853

>  <SCORE.RESTR.norm>
0.00354719

>  <SCORE.SYSTEM>
0

>  <SCORE.SYSTEM.CONST>
0

>  <SCORE.SYSTEM.DIHEDRAL>
0

>  <SCORE.SYSTEM.SOLV>
0

>  <SCORE.SYSTEM.norm>
0

>  <SCORE.heavy>
23

>  <SCORE.norm>
-1.31852

>  <RMSD>
14.284

$$$$
1uui_lig
 OpenBabel11021811413D
libRbt.so/2013.1/901 2013/11/27
 23 24  0  0  0  0  0  0  0  0999 V2000
  -19.9735   -4.7490    8.6219 C   0  0  0  0  0  0  0  0  0  0  0  0
  -17.4982   -6.2735    8.6426 O   0  0  0  0  0  0  0  0  0  0  0  0
  -20.7549   -6.4163   13.3199 O   0  0  0  0  0  0  0  0  0  0  0  0
  -16.8251   -7.5275    8.4744 C   0  0  0  0  0  0  0  0  0  0  0  0
  -21.7740   -7.4070   13.1649 C   0  0  0  0  0  0  0  0  0  0  0  0
  -21.0936   -5.4395    7.9023 N   0  0  0  0  0  0  0  0  0  0  0  0
  -17.8302   -8.5731    7.9888 C   0  0  0  0  0  0  0  0  0  0  0  0
  -21.4293   -4.7422    6.6312 C   0  0  0  0  0  0  0  0  0  0  0  0
  -22.3061   -5.5193    8.7592 C   0  0  0  0  0  0  0  0  0  0  0  0
  -17.3077   -9.9814    8.2902 C   0  0  0  0  0  0  0  0  0  0  0  0
  -21.8903   -3.2949    6.8737 C   0  0  0  0  0  0  0  0  0  0  0  0
  -22.8003   -4.1230    9.1742 C   0  0  0  0  0  0  0  0  0  0  0  0
  -17.9104  -10.9452    7.3425 N   0  0  0  0  0  0  0  0  0  0  0  0
  -22.2273   -3.0445    8.3101 N   0  0  0  0  0  0  0  0  0  0  0  0
  -22.2421   -1.7187    8.7821 C   0  0  0  0  0  0  0  0  0  0  0  0
  -21.3083   -1.2868    9.6767 N   0  0  0  0  0  0  0  0  0  0  0  0
  -23.2658   -0.8770    8.4611 N   0  0  0  0  0  0  0  0  0  0  0  0
  -18.3189   -6.3109    9.8136 C   0  0  0  0  0  0  0  0  0  0  0  0
  -19.5382   -5.5807    9.8506 C   0  0  0  0  0  0  0  0  0  0  0  0
  -20.3488   -5.6174   11.0191 C   0  0  0  0  0  0  0  0  0  0  0  0
  -19.9395   -6.3821   12.1452 C   0  0  0  0  0  0  0  0  0  0  0  0
  -18.7220   -7.1112   12.1046 C   0  0  0  0  0  0  0  0  0  0  0  0
  -17.9117   -7.0745   10.9394 C   0  0  0  0  0  0  0  0  0  0  0  0
  2  4  1  0  0  0  0
  3  5  1  0  0  0  0
  4  7  1  0  0  0  0
  6  1  1  0  0  0  0
  7 10  1  0  0  0  0
  8  6  1  0  0  0  0
  8 11  1  0  0  0  0
  9  6  1  0  0  0  0
 10 13  1  0  0  0  0
 11 14  1  0  0  0  0
 12  9  1  0  0  0  0
 14 12  1  0  0  0  0
 14 15  1  0  0  0  0
 15 16  1  0  0  0  0
 15 17  1  0  0  0  0
 18  2  1  0  0  0  0
 18 23  2  0  0  0  0
 19  1  1  0  0  0  0
 19 18  1  0  0  0  0
 20 19  2  0  0  0  0
 21  3  1  0  0  0  0
 21 20  1  0  0  0  0
 22 21  2  0  0  0  0
 22 23  1  0  0  0  0
M  END
>  <CHROM.1>
73.85483233,-159.09952495,-173.55100293,-154.87394198,-157.22671739,-112.00609373
-126.97476850,2.60257552,-147.20714010,105.71498939,84.02522215,-20.16214113
-5.65553938,9.36705269,-2.88320131,-0.93568284,1.80694591

>  <Name>
1uui_lig

>  <RI>
0

>  <Rbt.Current_Directory>
/home/itssahil/PROJECTS/Mol_Feturizer/New_Systems/rnas/1uui

>  <Rbt.Executable>
rbdock ($Id: //depot/dev/client3/rdock/2013.1/src/exe/rbdock.cxx#4 $)

>  <Rbt.Library>
libRbt.so (2013.1, Build901 2013/11/27)

>  <Rbt.Parameter_File>
/export/apps/rDock/src/rDock_2013.1_src/data/scripts/dock_solv.prm

>  <Rbt.Receptor>
prm/blind_docking_40.prm

>  <SCORE>
-30.7461

>  <SCORE.INTER>
-27.0771

>  <SCORE.INTER.CONST>
1

>  <SCORE.INTER.POLAR>
-4.18514

>  <SCORE.INTER.ROT>
10

>  <SCORE.INTER.SOLV>
7.37727

>  <SCORE.INTER.VDW>
-16.8267

>  <SCORE.INTER.norm>
-1.17727

>  <SCORE.INTRA>
-3.68625

>  <SCORE.INTRA.DIHEDRAL>
-7.32676

>  <SCORE.INTRA.DIHEDRAL.0>
23.4151

>  <SCORE.INTRA.POLAR>
0

>  <SCORE.INTRA.POLAR.0>
0

>  <SCORE.INTRA.REPUL>
0

>  <SCORE.INTRA.REPUL.0>
0

>  <SCORE.INTRA.SOLV>
0.0225897

>  <SCORE.INTRA.SOLV.lig_0>
-17.3568

>  <SCORE.INTRA.VDW>
-0.0341704

>  <SCORE.INTRA.VDW.0>
1.0768

>  <SCORE.INTRA.norm>
-0.160272

>  <SCORE.RESTR>
0.0172369

>  <SCORE.RESTR.CAVITY>
0.0172369

>  <SCORE.RESTR.norm>
0.000749429

>  <SCORE.SYSTEM>
0

>  <SCORE.SYSTEM.CONST>
0

>  <SCORE.SYSTEM.DIHEDRAL>
0

>  <SCORE.SYSTEM.SOLV>
0

>  <SCORE.SYSTEM.norm>
0

>  <SCORE.heavy>
23

>  <SCORE.norm>
-1.33679

>  <RMSD>
14.327

$$$$
1uui_lig
 OpenBabel11021811413D
libRbt.so/2013.1/901 2013/11/27
 23 24  0  0  0  0  0  0  0  0999 V2000
  -19.5432   -8.0536    9.4891 C   0  0  0  0  0  0  0  0  0  0  0  0
  -16.6787   -7.8002    9.0629 O   0  0  0  0  0  0  0  0  0  0  0  0
  -19.7083  -10.6649    5.1746 O   0  0  0  0  0  0  0  0  0  0  0  0
  -16.1752   -8.7063   10.0526 C   0  0  0  0  0  0  0  0  0  0  0  0
  -19.4022  -10.1692    3.8689 C   0  0  0  0  0  0  0  0  0  0  0  0
  -19.1010   -6.6332    9.6802 N   0  0  0  0  0  0  0  0  0  0  0  0
  -17.0981   -8.6779   11.2719 C   0  0  0  0  0  0  0  0  0  0  0  0
  -19.2894   -6.1946   11.0898 C   0  0  0  0  0  0  0  0  0  0  0  0
  -19.8438   -5.7190    8.7730 C   0  0  0  0  0  0  0  0  0  0  0  0
  -16.4034   -9.3332   12.4699 C   0  0  0  0  0  0  0  0  0  0  0  0
  -20.7652   -6.2558   11.5188 C   0  0  0  0  0  0  0  0  0  0  0  0
  -21.3602   -5.7800    9.0236 C   0  0  0  0  0  0  0  0  0  0  0  0
  -15.1724   -8.5805   12.7994 N   0  0  0  0  0  0  0  0  0  0  0  0
  -21.6866   -6.3950   10.3477 N   0  0  0  0  0  0  0  0  0  0  0  0
  -22.9859   -6.8913   10.5624 C   0  0  0  0  0  0  0  0  0  0  0  0
  -23.7745   -7.2577    9.5122 N   0  0  0  0  0  0  0  0  0  0  0  0
  -23.5338   -6.8908   11.8111 N   0  0  0  0  0  0  0  0  0  0  0  0
  -17.4415   -8.5153    8.0867 C   0  0  0  0  0  0  0  0  0  0  0  0
  -18.8454   -8.6659    8.2525 C   0  0  0  0  0  0  0  0  0  0  0  0
  -19.5992   -9.3817    7.2813 C   0  0  0  0  0  0  0  0  0  0  0  0
  -18.9490   -9.9439    6.1492 C   0  0  0  0  0  0  0  0  0  0  0  0
  -17.5472   -9.7907    5.9857 C   0  0  0  0  0  0  0  0  0  0  0  0
  -16.7938   -9.0775    6.9549 C   0  0  0  0  0  0  0  0  0  0  0  0
  2  4  1  0  0  0  0
  3  5  1  0  0  0  0
  4  7  1  0  0  0  0
  6  1  1  0  0  0  0
  7 10  1  0  0  0  0
  8  6  1  0  0  0  0
  8 11  1  0  0  0  0
  9  6  1  0  0  0  0
 10 13  1  0  0  0  0
 11 14  1  0  0  0  0
 12  9  1  0  0  0  0
 14 12  1  0  0  0  0
 14 15  1  0  0  0  0
 15 16  1  0  0  0  0
 15 17  1  0  0  0  0
 18  2  1  0  0  0  0
 18 23  2  0  0  0  0
 19  1  1  0  0  0  0
 19 18  1  0  0  0  0
 20 19  2  0  0  0  0
 21  3  1  0  0  0  0
 21 20  1  0  0  0  0
 22 21  2  0  0  0  0
 22 23  1  0  0  0  0
M  END
>  <CHROM.1>
-97.74683390,-165.02526409,-157.17862884,61.04252472,39.71111338,-168.30639531
-65.66542336,137.46913923,91.97913323,47.78534035,129.67666145,-19.22118973
-8.04087641,9.15886881,2.28661512,-0.30722042,1.18197930

>  <Name>
1uui_lig

>  <RI>
0

>  <Rbt.Current_Directory>
/home/itssahil/PROJECTS/Mol_Feturizer/New_Systems/rnas/1uui

>  <Rbt.Executable>
rbdock ($Id: //depot/dev/client3/rdock/2013.1/src/exe/rbdock.cxx#4 $)

>  <Rbt.Library>
libRbt.so (2013.1, Build901 2013/11/27)

>  <Rbt.Parameter_File>
/export/apps/rDock/src/rDock_2013.1_src/data/scripts/dock_solv.prm

>  <Rbt.Receptor>
prm/blind_docking_100.prm

>  <SCORE>
-27.193

>  <SCORE.INTER>
-23.278

>  <SCORE.INTER.CONST>
1

>  <SCORE.INTER.POLAR>
-2.81974

>  <SCORE.INTER.ROT>
10

>  <SCORE.INTER.SOLV>
9.63811

>  <SCORE.INTER.VDW>
-19.5989

>  <SCORE.INTER.norm>
-1.01209

>  <SCORE.INTRA>
-4.49162

>  <SCORE.INTRA.DIHEDRAL>
-3.56396

>  <SCORE.INTRA.DIHEDRAL.0>
23.4151

>  <SCORE.INTRA.POLAR>
-0.727205

>  <SCORE.INTRA.POLAR.0>
0

>  <SCORE.INTRA.REPUL>
0

>  <SCORE.INTRA.REPUL.0>
0

>  <SCORE.INTRA.SOLV>
0.428467

>  <SCORE.INTRA.SOLV.lig_0>
-17.3568

>  <SCORE.INTRA.VDW>
-0.451374

>  <SCORE.INTRA.VDW.0>
1.0768

>  <SCORE.INTRA.norm>
-0.195288

>  <SCORE.RESTR>
0.576606

>  <SCORE.RESTR.CAVITY>
0.576606

>  <SCORE.RESTR.norm>
0.0250698

>  <SCORE.SYSTEM>
0

>  <SCORE.SYSTEM.CONST>
0

>  <SCORE.SYSTEM.DIHEDRAL>
0

>  <SCORE.SYSTEM.SOLV>
0

>  <SCORE.SYSTEM.norm>
0

>  <SCORE.heavy>
23

>  <SCORE.norm>
-1.1823

>  <RMSD>
14.334

$$$$
1uui_lig
 OpenBabel11021811413D
libRbt.so/2013.1/901 2013/11/27
 23 24  0  0  0  0  0  0  0  0999 V2000
  -19.3783   -7.1779    9.6855 C   0  0  0  0  0  0  0  0  0  0  0  0
  -16.5951   -7.9667    9.9742 O   0  0  0  0  0  0  0  0  0  0  0  0
  -19.3389   -9.5603    5.2375 O   0  0  0  0  0  0  0  0  0  0  0  0
  -17.2087   -8.5694   11.1207 C   0  0  0  0  0  0  0  0  0  0  0  0
  -19.6879  -10.9434    5.3334 C   0  0  0  0  0  0  0  0  0  0  0  0
  -19.8108   -5.8549    9.1267 N   0  0  0  0  0  0  0  0  0  0  0  0
  -16.8621   -7.7474   12.3630 C   0  0  0  0  0  0  0  0  0  0  0  0
  -19.6772   -4.7722   10.1389 C   0  0  0  0  0  0  0  0  0  0  0  0
  -21.2169   -5.9148    8.6474 C   0  0  0  0  0  0  0  0  0  0  0  0
  -15.4462   -8.0885   12.8384 C   0  0  0  0  0  0  0  0  0  0  0  0
  -20.5513   -5.0318   11.3776 C   0  0  0  0  0  0  0  0  0  0  0  0
  -22.1870   -6.2894    9.7809 C   0  0  0  0  0  0  0  0  0  0  0  0
  -15.4017   -9.4987   13.2856 N   0  0  0  0  0  0  0  0  0  0  0  0
  -21.5739   -6.0965   11.1319 N   0  0  0  0  0  0  0  0  0  0  0  0
  -22.1474   -6.7538   12.2362 C   0  0  0  0  0  0  0  0  0  0  0  0
  -21.4122   -7.0058   13.3564 N   0  0  0  0  0  0  0  0  0  0  0  0
  -23.4067   -7.2716   12.1611 N   0  0  0  0  0  0  0  0  0  0  0  0
  -17.2845   -8.3621    8.7848 C   0  0  0  0  0  0  0  0  0  0  0  0
  -18.6468   -8.0002    8.5993 C   0  0  0  0  0  0  0  0  0  0  0  0
  -19.3295   -8.3996    7.4168 C   0  0  0  0  0  0  0  0  0  0  0  0
  -18.6503   -9.1580    6.4249 C   0  0  0  0  0  0  0  0  0  0  0  0
  -17.2896   -9.5167    6.6125 C   0  0  0  0  0  0  0  0  0  0  0  0
  -16.6075   -9.1197    7.7927 C   0  0  0  0  0  0  0  0  0  0  0  0
  2  4  1  0  0  0  0
  3  5  1  0  0  0  0
  4  7  1  0  0  0  0
  6  1  1  0  0  0  0
  7 10  1  0  0  0  0
  8  6  1  0  0  0  0
  8 11  1  0  0  0  0
  9  6  1  0  0  0  0
 10 13  1  0  0  0  0
 11 14  1  0  0  0  0
 12  9  1  0  0  0  0
 14 12  1  0  0  0  0
 14 15  1  0  0  0  0
 15 16  1  0  0  0  0
 15 17  1  0  0  0  0
 18  2  1  0  0  0  0
 18 23  2  0  0  0  0
 19  1  1  0  0  0  0
 19 18  1  0  0  0  0
 20 19  2  0  0  0  0
 21  3  1  0  0  0  0
 21 20  1  0  0  0  0
 22 21  2  0  0  0  0
 22 23  1  0  0  0  0
M  END
>  <CHROM.1>
-157.64871468,-79.26246881,-142.85207534,-65.03588415,61.00949133,-34.81634100
-110.83929526,-70.63657121,62.94869865,117.68546237,-103.16483605,-19.13349081
-7.70692992,9.79219852,2.09712484,-0.40653196,1.25852655

>  <Name>
1uui_lig

>  <RI>
0

>  <Rbt.Current_Directory>
/home/itssahil/PROJECTS/Mol_Feturizer/New_Systems/rnas/1uui

>  <Rbt.Executable>
rbdock ($Id: //depot/dev/client3/rdock/2013.1/src/exe/rbdock.cxx#4 $)

>  <Rbt.Library>
libRbt.so (2013.1, Build901 2013/11/27)

>  <Rbt.Parameter_File>
/export/apps/rDock/src/rDock_2013.1_src/data/scripts/dock_solv.prm

>  <Rbt.Receptor>
prm/blind_docking_100.prm

>  <SCORE>
-25.7102

>  <SCORE.INTER>
-23.4677

>  <SCORE.INTER.CONST>
1

>  <SCORE.INTER.POLAR>
-2.46073

>  <SCORE.INTER.ROT>
10

>  <SCORE.INTER.SOLV>
7.47042

>  <SCORE.INTER.VDW>
-20.1995

>  <SCORE.INTER.norm>
-1.02033

>  <SCORE.INTRA>
-3.27158

>  <SCORE.INTRA.DIHEDRAL>
-4.67175

>  <SCORE.INTRA.DIHEDRAL.0>
23.4151

>  <SCORE.INTRA.POLAR>
0

>  <SCORE.INTRA.POLAR.0>
0

>  <SCORE.INTRA.REPUL>
0

>  <SCORE.INTRA.REPUL.0>
0

>  <SCORE.INTRA.SOLV>
0.187373

>  <SCORE.INTRA.SOLV.lig_0>
-17.3568

>  <SCORE.INTRA.VDW>
-1.02939

>  <SCORE.INTRA.VDW.0>
1.0768

>  <SCORE.INTRA.norm>
-0.142243

>  <SCORE.RESTR>
1.02909

>  <SCORE.RESTR.CAVITY>
1.02909

>  <SCORE.RESTR.norm>
0.044743

>  <SCORE.SYSTEM>
0

>  <SCORE.SYSTEM.CONST>
0

>  <SCORE.SYSTEM.DIHEDRAL>
0

>  <SCORE.SYSTEM.SOLV>
0

>  <SCORE.SYSTEM.norm>
0

>  <SCORE.heavy>
23

>  <SCORE.norm>
-1.11783

>  <RMSD>
14.337

$$$$
1uui_lig
 OpenBabel11021811413D
libRbt.so/2013.1/901 2013/11/27
 23 24  0  0  0  0  0  0  0  0999 V2000
  -20.7731   -6.6590    7.7325 C   0  0  0  0  0  0  0  0  0  0  0  0
  -20.2082   -7.5784    5.0331 O   0  0  0  0  0  0  0  0  0  0  0  0
  -16.3571   -8.6900    9.0874 O   0  0  0  0  0  0  0  0  0  0  0  0
  -20.7048   -8.8020    4.4760 C   0  0  0  0  0  0  0  0  0  0  0  0
  -16.5170  -10.0351    9.5448 C   0  0  0  0  0  0  0  0  0  0  0  0
  -20.4878   -5.1902    7.8365 N   0  0  0  0  0  0  0  0  0  0  0  0
  -22.0114   -8.5188    3.7332 C   0  0  0  0  0  0  0  0  0  0  0  0
  -19.6560   -4.8856    9.0323 C   0  0  0  0  0  0  0  0  0  0  0  0
  -21.7500   -4.4069    7.8979 C   0  0  0  0  0  0  0  0  0  0  0  0
  -22.9949   -7.7972    4.6600 C   0  0  0  0  0  0  0  0  0  0  0  0
  -20.3588   -5.2893   10.3396 C   0  0  0  0  0  0  0  0  0  0  0  0
  -22.6086   -4.8088    9.1093 C   0  0  0  0  0  0  0  0  0  0  0  0
  -22.4759   -6.4477    4.9763 N   0  0  0  0  0  0  0  0  0  0  0  0
  -21.8172   -5.5560   10.1357 N   0  0  0  0  0  0  0  0  0  0  0  0
  -22.5040   -6.3331   11.0870 C   0  0  0  0  0  0  0  0  0  0  0  0
  -23.5068   -7.1749   10.7066 N   0  0  0  0  0  0  0  0  0  0  0  0
  -22.2753   -6.1634   12.4206 N   0  0  0  0  0  0  0  0  0  0  0  0
  -19.2452   -7.8595    6.0527 C   0  0  0  0  0  0  0  0  0  0  0  0
  -19.4773   -7.4292    7.3877 C   0  0  0  0  0  0  0  0  0  0  0  0
  -18.5146   -7.7071    8.3975 C   0  0  0  0  0  0  0  0  0  0  0  0
  -17.3249   -8.4130    8.0711 C   0  0  0  0  0  0  0  0  0  0  0  0
  -17.0965   -8.8425    6.7374 C   0  0  0  0  0  0  0  0  0  0  0  0
  -18.0561   -8.5648    5.7286 C   0  0  0  0  0  0  0  0  0  0  0  0
  2  4  1  0  0  0  0
  3  5  1  0  0  0  0
  4  7  1  0  0  0  0
  6  1  1  0  0  0  0
  7 10  1  0  0  0  0
  8  6  1  0  0  0  0
  8 11  1  0  0  0  0
  9  6  1  0  0  0  0
 10 13  1  0  0  0  0
 11 14  1  0  0  0  0
 12  9  1  0  0  0  0
 14 12  1  0  0  0  0
 14 15  1  0  0  0  0
 15 16  1  0  0  0  0
 15 17  1  0  0  0  0
 18  2  1  0  0  0  0
 18 23  2  0  0  0  0
 19  1  1  0  0  0  0
 19 18  1  0  0  0  0
 20 19  2  0  0  0  0
 21  3  1  0  0  0  0
 21 20  1  0  0  0  0
 22 21  2  0  0  0  0
 22 23  1  0  0  0  0
M  END
>  <CHROM.1>
162.28237546,-53.64125649,-69.12500417,66.82043951,-158.71149754,-145.20457703
-93.84352854,131.88672479,-119.08644189,-101.29436526,99.40560410,-20.35317445
-7.07160951,7.85988582,2.18665250,-0.45547038,1.30474617

>  <Name>
1uui_lig

>  <RI>
0

>  <Rbt.Current_Directory>
/home/itssahil/PROJECTS/Mol_Feturizer/New_Systems/rnas/1uui

>  <Rbt.Executable>
rbdock ($Id: //depot/dev/client3/rdock/2013.1/src/exe/rbdock.cxx#4 $)

>  <Rbt.Library>
libRbt.so (2013.1, Build901 2013/11/27)

>  <Rbt.Parameter_File>
/export/apps/rDock/src/rDock_2013.1_src/data/scripts/dock_solv.prm

>  <Rbt.Receptor>
prm/blind_docking_60.prm

>  <SCORE>
-29.0881

>  <SCORE.INTER>
-21.3442

>  <SCORE.INTER.CONST>
1

>  <SCORE.INTER.POLAR>
-3.04588

>  <SCORE.INTER.ROT>
10

>  <SCORE.INTER.SOLV>
6.87839

>  <SCORE.INTER.VDW>
-16.636

>  <SCORE.INTER.norm>
-0.928009

>  <SCORE.INTRA>
-7.74385

>  <SCORE.INTRA.DIHEDRAL>
-7.63495

>  <SCORE.INTRA.DIHEDRAL.0>
23.4151

>  <SCORE.INTRA.POLAR>
-0.810338

>  <SCORE.INTRA.POLAR.0>
0

>  <SCORE.INTRA.REPUL>
0

>  <SCORE.INTRA.REPUL.0>
0

>  <SCORE.INTRA.SOLV>
1.08765

>  <SCORE.INTRA.SOLV.lig_0>
-17.3568

>  <SCORE.INTRA.VDW>
-1.71505

>  <SCORE.INTRA.VDW.0>
1.0768

>  <SCORE.INTRA.norm>
-0.336689

>  <SCORE.RESTR>
0

>  <SCORE.RESTR.CAVITY>
0

>  <SCORE.RESTR.norm>
0

>  <SCORE.SYSTEM>
0

>  <SCORE.SYSTEM.CONST>
0

>  <SCORE.SYSTEM.DIHEDRAL>
0

>  <SCORE.SYSTEM.SOLV>
0

>  <SCORE.SYSTEM.norm>
0

>  <SCORE.heavy>
23

>  <SCORE.norm>
-1.2647

>  <RMSD>
14.342

$$$$
1uui_lig
 OpenBabel11021811413D
libRbt.so/2013.1/901 2013/11/27
 23 24  0  0  0  0  0  0  0  0999 V2000
  -20.4150   -6.9808    9.1301 C   0  0  0  0  0  0  0  0  0  0  0  0
  -19.5075   -7.9023    6.5265 O   0  0  0  0  0  0  0  0  0  0  0  0
  -15.9242   -8.4125   10.9314 O   0  0  0  0  0  0  0  0  0  0  0  0
  -19.8620   -9.1977    6.0264 C   0  0  0  0  0  0  0  0  0  0  0  0
  -16.5555   -9.1511   11.9802 C   0  0  0  0  0  0  0  0  0  0  0  0
  -20.5956   -6.5702   10.5613 N   0  0  0  0  0  0  0  0  0  0  0  0
  -18.7989   -9.6556    5.0267 C   0  0  0  0  0  0  0  0  0  0  0  0
  -22.0330   -6.5754   10.9468 C   0  0  0  0  0  0  0  0  0  0  0  0
  -20.0224   -5.2198   10.8029 C   0  0  0  0  0  0  0  0  0  0  0  0
  -19.1535  -11.0438    4.4842 C   0  0  0  0  0  0  0  0  0  0  0  0
  -22.8588   -5.5914   10.1008 C   0  0  0  0  0  0  0  0  0  0  0  0
  -20.6896   -4.1536    9.9173 C   0  0  0  0  0  0  0  0  0  0  0  0
  -18.1773  -11.4306    3.4411 N   0  0  0  0  0  0  0  0  0  0  0  0
  -21.9925   -4.6263    9.3540 N   0  0  0  0  0  0  0  0  0  0  0  0
  -22.5251   -3.9650    8.2317 C   0  0  0  0  0  0  0  0  0  0  0  0
  -22.0771   -4.2513    6.9762 N   0  0  0  0  0  0  0  0  0  0  0  0
  -23.4013   -2.9312    8.3838 N   0  0  0  0  0  0  0  0  0  0  0  0
  -18.6116   -8.0328    7.6340 C   0  0  0  0  0  0  0  0  0  0  0  0
  -19.0108   -7.5954    8.9265 C   0  0  0  0  0  0  0  0  0  0  0  0
  -18.1147   -7.7232   10.0240 C   0  0  0  0  0  0  0  0  0  0  0  0
  -16.8246   -8.2866    9.8271 C   0  0  0  0  0  0  0  0  0  0  0  0
  -16.4294   -8.7235    8.5355 C   0  0  0  0  0  0  0  0  0  0  0  0
  -17.3225   -8.5956    7.4393 C   0  0  0  0  0  0  0  0  0  0  0  0
  2  4  1  0  0  0  0
  3  5  1  0  0  0  0
  4  7  1  0  0  0  0
  6  1  1  0  0  0  0
  7 10  1  0  0  0  0
  8  6  1  0  0  0  0
  8 11  1  0  0  0  0
  9  6  1  0  0  0  0
 10 13  1  0  0  0  0
 11 14  1  0  0  0  0
 12  9  1  0  0  0  0
 14 12  1  0  0  0  0
 14 15  1  0  0  0  0
 15 16  1  0  0  0  0
 15 17  1  0  0  0  0
 18  2  1  0  0  0  0
 18 23  2  0  0  0  0
 19  1  1  0  0  0  0
 19 18  1  0  0  0  0
 20 19  2  0  0  0  0
 21  3  1  0  0  0  0
 21 20  1  0  0  0  0
 22 21  2  0  0  0  0
 22 23  1  0  0  0  0
M  END
>  <CHROM.1>
-85.56979934,179.67585335,-153.79092314,175.59169926,170.19425590,-110.83840026
100.93661088,97.22104112,-115.84090743,-178.79283777,55.35960557,-19.63710152
-7.24072752,8.44133528,-2.38466062,0.68071158,-2.04532218

>  <Name>
1uui_lig

>  <RI>
0

>  <Rbt.Current_Directory>
/home/itssahil/PROJECTS/Mol_Feturizer/New_Systems/rnas/1uui

>  <Rbt.Executable>
rbdock ($Id: //depot/dev/client3/rdock/2013.1/src/exe/rbdock.cxx#4 $)

>  <Rbt.Library>
libRbt.so (2013.1, Build901 2013/11/27)

>  <Rbt.Parameter_File>
/export/apps/rDock/src/rDock_2013.1_src/data/scripts/dock_solv.prm

>  <Rbt.Receptor>
prm/blind_docking_100.prm

>  <SCORE>
-21.2237

>  <SCORE.INTER>
-17.6582

>  <SCORE.INTER.CONST>
1

>  <SCORE.INTER.POLAR>
-1.7713

>  <SCORE.INTER.ROT>
10

>  <SCORE.INTER.SOLV>
6.02027

>  <SCORE.INTER.VDW>
-18.1412

>  <SCORE.INTER.norm>
-0.767749

>  <SCORE.INTRA>
-3.56542

>  <SCORE.INTRA.DIHEDRAL>
-7.59535

>  <SCORE.INTRA.DIHEDRAL.0>
23.4151

>  <SCORE.INTRA.POLAR>
0

>  <SCORE.INTRA.POLAR.0>
0

>  <SCORE.INTRA.REPUL>
0

>  <SCORE.INTRA.REPUL.0>
0

>  <SCORE.INTRA.SOLV>
-0.141879

>  <SCORE.INTRA.SOLV.lig_0>
-17.3568

>  <SCORE.INTRA.VDW>
0.30319

>  <SCORE.INTRA.VDW.0>
1.0768

>  <SCORE.INTRA.norm>
-0.155018

>  <SCORE.RESTR>
0

>  <SCORE.RESTR.CAVITY>
0

>  <SCORE.RESTR.norm>
0

>  <SCORE.SYSTEM>
0

>  <SCORE.SYSTEM.CONST>
0

>  <SCORE.SYSTEM.DIHEDRAL>
0

>  <SCORE.SYSTEM.SOLV>
0

>  <SCORE.SYSTEM.norm>
0

>  <SCORE.heavy>
23

>  <SCORE.norm>
-0.922767

>  <RMSD>
14.347

$$$$
1uui_lig
 OpenBabel11021811413D
libRbt.so/2013.1/901 2013/11/27
 23 24  0  0  0  0  0  0  0  0999 V2000
  -19.8507   -7.3421    9.5603 C   0  0  0  0  0  0  0  0  0  0  0  0
  -18.5506   -8.7051    7.3460 O   0  0  0  0  0  0  0  0  0  0  0  0
  -15.6229   -8.1198   12.2029 O   0  0  0  0  0  0  0  0  0  0  0  0
  -18.3213   -7.5719    6.4991 C   0  0  0  0  0  0  0  0  0  0  0  0
  -16.0379   -9.1197   13.1367 C   0  0  0  0  0  0  0  0  0  0  0  0
  -20.4925   -7.2828   10.9146 N   0  0  0  0  0  0  0  0  0  0  0  0
  -18.8749   -7.8698    5.1048 C   0  0  0  0  0  0  0  0  0  0  0  0
  -21.9767   -7.3130   10.8099 C   0  0  0  0  0  0  0  0  0  0  0  0
  -20.0720   -6.0603   11.6487 C   0  0  0  0  0  0  0  0  0  0  0  0
  -18.0519   -8.9781    4.4404 C   0  0  0  0  0  0  0  0  0  0  0  0
  -22.5215   -6.1150   10.0137 C   0  0  0  0  0  0  0  0  0  0  0  0
  -20.4567   -4.7806   10.8867 C   0  0  0  0  0  0  0  0  0  0  0  0
  -18.2999  -10.2613    5.1350 N   0  0  0  0  0  0  0  0  0  0  0  0
  -21.4949   -5.0399    9.8411 N   0  0  0  0  0  0  0  0  0  0  0  0
  -21.6629   -4.1015    8.8059 C   0  0  0  0  0  0  0  0  0  0  0  0
  -21.9219   -2.7927    9.0867 N   0  0  0  0  0  0  0  0  0  0  0  0
  -21.7045   -4.5023    7.5032 N   0  0  0  0  0  0  0  0  0  0  0  0
  -17.8194   -8.5604    8.5669 C   0  0  0  0  0  0  0  0  0  0  0  0
  -18.4134   -7.9004    9.6772 C   0  0  0  0  0  0  0  0  0  0  0  0
  -17.6807   -7.7550   10.8878 C   0  0  0  0  0  0  0  0  0  0  0  0
  -16.3589   -8.2686   10.9854 C   0  0  0  0  0  0  0  0  0  0  0  0
  -15.7690   -8.9282    9.8754 C   0  0  0  0  0  0  0  0  0  0  0  0
  -16.4989   -9.0730    8.6663 C   0  0  0  0  0  0  0  0  0  0  0  0
  2  4  1  0  0  0  0
  3  5  1  0  0  0  0
  4  7  1  0  0  0  0
  6  1  1  0  0  0  0
  7 10  1  0  0  0  0
  8  6  1  0  0  0  0
  8 11  1  0  0  0  0
  9  6  1  0  0  0  0
 10 13  1  0  0  0  0
 11 14  1  0  0  0  0
 12  9  1  0  0  0  0
 14 12  1  0  0  0  0
 14 15  1  0  0  0  0
 15 16  1  0  0  0  0
 15 17  1  0  0  0  0
 18  2  1  0  0  0  0
 18 23  2  0  0  0  0
 19  1  1  0  0  0  0
 19 18  1  0  0  0  0
 20 19  2  0  0  0  0
 21  3  1  0  0  0  0
 21 20  1  0  0  0  0
 22 21  2  0  0  0  0
 22 23  1  0  0  0  0
M  END
>  <CHROM.1>
168.74823872,-67.38744154,-156.13640074,69.35346024,81.62529895,112.57863572
34.39648427,-96.58427751,89.29572442,153.84579407,80.19777540,-19.10383447
-7.22258597,9.16187519,-2.85820886,0.68833366,-1.81407956

>  <Name>
1uui_lig

>  <RI>
0

>  <Rbt.Current_Directory>
/home/itssahil/PROJECTS/Mol_Feturizer/New_Systems/rnas/1uui

>  <Rbt.Executable>
rbdock ($Id: //depot/dev/client3/rdock/2013.1/src/exe/rbdock.cxx#4 $)

>  <Rbt.Library>
libRbt.so (2013.1, Build901 2013/11/27)

>  <Rbt.Parameter_File>
/export/apps/rDock/src/rDock_2013.1_src/data/scripts/dock_solv.prm

>  <Rbt.Receptor>
prm/blind_docking_80.prm

>  <SCORE>
-26.5407

>  <SCORE.INTER>
-19.0084

>  <SCORE.INTER.CONST>
1

>  <SCORE.INTER.POLAR>
-1.5746

>  <SCORE.INTER.ROT>
10

>  <SCORE.INTER.SOLV>
5.70475

>  <SCORE.INTER.VDW>
-19.5919

>  <SCORE.INTER.norm>
-0.826453

>  <SCORE.INTRA>
-7.64244

>  <SCORE.INTRA.DIHEDRAL>
-6.30682

>  <SCORE.INTRA.DIHEDRAL.0>
23.4151

>  <SCORE.INTRA.POLAR>
-0.806994

>  <SCORE.INTRA.POLAR.0>
0

>  <SCORE.INTRA.REPUL>
0

>  <SCORE.INTRA.REPUL.0>
0

>  <SCORE.INTRA.SOLV>
0.526464

>  <SCORE.INTRA.SOLV.lig_0>
-17.3568

>  <SCORE.INTRA.VDW>
-2.00848

>  <SCORE.INTRA.VDW.0>
1.0768

>  <SCORE.INTRA.norm>
-0.33228

>  <SCORE.RESTR>
0.110136

>  <SCORE.RESTR.CAVITY>
0.110136

>  <SCORE.RESTR.norm>
0.0047885

>  <SCORE.SYSTEM>
0

>  <SCORE.SYSTEM.CONST>
0

>  <SCORE.SYSTEM.DIHEDRAL>
0

>  <SCORE.SYSTEM.SOLV>
0

>  <SCORE.SYSTEM.norm>
0

>  <SCORE.heavy>
23

>  <SCORE.norm>
-1.15394

>  <RMSD>
14.359

$$$$
1uui_lig
 OpenBabel11021811413D
libRbt.so/2013.1/901 2013/11/27
 23 24  0  0  0  0  0  0  0  0999 V2000
  -20.6888   -6.0538    8.1811 C   0  0  0  0  0  0  0  0  0  0  0  0
  -19.2590   -7.8429    9.9716 O   0  0  0  0  0  0  0  0  0  0  0  0
  -21.0630   -9.9427    4.9876 O   0  0  0  0  0  0  0  0  0  0  0  0
  -17.9083   -7.3786    9.8528 C   0  0  0  0  0  0  0  0  0  0  0  0
  -19.9581  -10.0578    4.0877 C   0  0  0  0  0  0  0  0  0  0  0  0
  -20.8932   -5.9231    9.6612 N   0  0  0  0  0  0  0  0  0  0  0  0
  -17.1962   -7.5641   11.1935 C   0  0  0  0  0  0  0  0  0  0  0  0
  -22.3077   -6.1931   10.0364 C   0  0  0  0  0  0  0  0  0  0  0  0
  -20.5050   -4.5678   10.1334 C   0  0  0  0  0  0  0  0  0  0  0  0
  -16.6553   -8.9930   11.3059 C   0  0  0  0  0  0  0  0  0  0  0  0
  -23.2783   -5.2028    9.3707 C   0  0  0  0  0  0  0  0  0  0  0  0
  -21.3306   -3.4686    9.4431 C   0  0  0  0  0  0  0  0  0  0  0  0
  -15.7133   -9.2533   10.1944 N   0  0  0  0  0  0  0  0  0  0  0  0
  -22.5684   -4.0137    8.8036 N   0  0  0  0  0  0  0  0  0  0  0  0
  -23.2104   -3.2503    7.8108 C   0  0  0  0  0  0  0  0  0  0  0  0
  -22.4864   -2.5134    6.9210 N   0  0  0  0  0  0  0  0  0  0  0  0
  -24.5681   -3.1233    7.7997 N   0  0  0  0  0  0  0  0  0  0  0  0
  -19.7092   -8.3665    8.7189 C   0  0  0  0  0  0  0  0  0  0  0  0
  -20.4135   -7.5296    7.8106 C   0  0  0  0  0  0  0  0  0  0  0  0
  -20.8632   -8.0560    6.5679 C   0  0  0  0  0  0  0  0  0  0  0  0
  -20.6084   -9.4146    6.2368 C   0  0  0  0  0  0  0  0  0  0  0  0
  -19.9038  -10.2474    7.1453 C   0  0  0  0  0  0  0  0  0  0  0  0
  -19.4554   -9.7234    8.3863 C   0  0  0  0  0  0  0  0  0  0  0  0
  2  4  1  0  0  0  0
  3  5  1  0  0  0  0
  4  7  1  0  0  0  0
  6  1  1  0  0  0  0
  7 10  1  0  0  0  0
  8  6  1  0  0  0  0
  8 11  1  0  0  0  0
  9  6  1  0  0  0  0
 10 13  1  0  0  0  0
 11 14  1  0  0  0  0
 12  9  1  0  0  0  0
 14 12  1  0  0  0  0
 14 15  1  0  0  0  0
 15 16  1  0  0  0  0
 15 17  1  0  0  0  0
 18  2  1  0  0  0  0
 18 23  2  0  0  0  0
 19  1  1  0  0  0  0
 19 18  1  0  0  0  0
 20 19  2  0  0  0  0
 21  3  1  0  0  0  0
 21 20  1  0  0  0  0
 22 21  2  0  0  0  0
 22 23  1  0  0  0  0
M  END
>  <CHROM.1>
-148.60690182,84.36610499,-85.53513752,59.11545855,57.63614861,-154.96409265
-133.58666932,133.92867515,-93.65711426,-33.11283219,103.84785141,-20.44489249
-6.86268394,8.46785965,2.60828852,-0.71598179,0.76807962

>  <Name>
1uui_lig

>  <RI>
0

>  <Rbt.Current_Directory>
/home/itssahil/PROJECTS/Mol_Feturizer/New_Systems/rnas/1uui

>  <Rbt.Executable>
rbdock ($Id: //depot/dev/client3/rdock/2013.1/src/exe/rbdock.cxx#4 $)

>  <Rbt.Library>
libRbt.so (2013.1, Build901 2013/11/27)

>  <Rbt.Parameter_File>
/export/apps/rDock/src/rDock_2013.1_src/data/scripts/dock_solv.prm

>  <Rbt.Receptor>
prm/blind_docking_80.prm

>  <SCORE>
-22.9894

>  <SCORE.INTER>
-17.7662

>  <SCORE.INTER.CONST>
1

>  <SCORE.INTER.POLAR>
-2.35671

>  <SCORE.INTER.ROT>
10

>  <SCORE.INTER.SOLV>
7.8145

>  <SCORE.INTER.VDW>
-16.8599

>  <SCORE.INTER.norm>
-0.772442

>  <SCORE.INTRA>
-5.27846

>  <SCORE.INTRA.DIHEDRAL>
-2.37124

>  <SCORE.INTRA.DIHEDRAL.0>
23.4151

>  <SCORE.INTRA.POLAR>
-0.795518

>  <SCORE.INTRA.POLAR.0>
0

>  <SCORE.INTRA.REPUL>
0

>  <SCORE.INTRA.REPUL.0>
0

>  <SCORE.INTRA.SOLV>
0.641782

>  <SCORE.INTRA.SOLV.lig_0>
-17.3568

>  <SCORE.INTRA.VDW>
-1.70897

>  <SCORE.INTRA.VDW.0>
1.0768

>  <SCORE.INTRA.norm>
-0.229498

>  <SCORE.RESTR>
0.0552622

>  <SCORE.RESTR.CAVITY>
0.0552622

>  <SCORE.RESTR.norm>
0.0024027

>  <SCORE.SYSTEM>
0

>  <SCORE.SYSTEM.CONST>
0

>  <SCORE.SYSTEM.DIHEDRAL>
0

>  <SCORE.SYSTEM.SOLV>
0

>  <SCORE.SYSTEM.norm>
0

>  <SCORE.heavy>
23

>  <SCORE.norm>
-0.999538

>  <RMSD>
14.373

$$$$
1uui_lig
 OpenBabel11021811413D
libRbt.so/2013.1/901 2013/11/27
 23 24  0  0  0  0  0  0  0  0999 V2000
  -19.2314   -6.9400    9.4048 C   0  0  0  0  0  0  0  0  0  0  0  0
  -16.5453   -7.8911    9.9805 O   0  0  0  0  0  0  0  0  0  0  0  0
  -19.4929  -10.5484    5.8874 O   0  0  0  0  0  0  0  0  0  0  0  0
  -16.5968   -8.6551   11.1920 C   0  0  0  0  0  0  0  0  0  0  0  0
  -20.7304  -11.0225    6.4238 C   0  0  0  0  0  0  0  0  0  0  0  0
  -20.1114   -7.4501   10.5071 N   0  0  0  0  0  0  0  0  0  0  0  0
  -16.1855   -7.7624   12.3637 C   0  0  0  0  0  0  0  0  0  0  0  0
  -21.5285   -7.5494   10.0637 C   0  0  0  0  0  0  0  0  0  0  0  0
  -20.0267   -6.5720   11.7038 C   0  0  0  0  0  0  0  0  0  0  0  0
  -16.2706   -8.5485   13.6760 C   0  0  0  0  0  0  0  0  0  0  0  0
  -22.0974   -6.1829    9.6454 C   0  0  0  0  0  0  0  0  0  0  0  0
  -20.4589   -5.1313   11.3821 C   0  0  0  0  0  0  0  0  0  0  0  0
  -15.1976   -9.5672   13.7120 N   0  0  0  0  0  0  0  0  0  0  0  0
  -21.2355   -5.0494   10.1059 N   0  0  0  0  0  0  0  0  0  0  0  0
  -21.3546   -3.8027    9.4642 C   0  0  0  0  0  0  0  0  0  0  0  0
  -20.3511   -2.8826    9.5367 N   0  0  0  0  0  0  0  0  0  0  0  0
  -22.5258   -3.4344    8.8706 N   0  0  0  0  0  0  0  0  0  0  0  0
  -17.2853   -8.5539    8.9513 C   0  0  0  0  0  0  0  0  0  0  0  0
  -18.6032   -8.1246    8.6347 C   0  0  0  0  0  0  0  0  0  0  0  0
  -19.3370   -8.7897    7.6134 C   0  0  0  0  0  0  0  0  0  0  0  0
  -18.7529   -9.8797    6.9127 C   0  0  0  0  0  0  0  0  0  0  0  0
  -17.4362  -10.3051    7.2302 C   0  0  0  0  0  0  0  0  0  0  0  0
  -16.7033   -9.6429    8.2500 C   0  0  0  0  0  0  0  0  0  0  0  0
  2  4  1  0  0  0  0
  3  5  1  0  0  0  0
  4  7  1  0  0  0  0
  6  1  1  0  0  0  0
  7 10  1  0  0  0  0
  8  6  1  0  0  0  0
  8 11  1  0  0  0  0
  9  6  1  0  0  0  0
 10 13  1  0  0  0  0
 11 14  1  0  0  0  0
 12  9  1  0  0  0  0
 14 12  1  0  0  0  0
 14 15  1  0  0  0  0
 15 16  1  0  0  0  0
 15 17  1  0  0  0  0
 18  2  1  0  0  0  0
 18 23  2  0  0  0  0
 19  1  1  0  0  0  0
 19 18  1  0  0  0  0
 20 19  2  0  0  0  0
 21  3  1  0  0  0  0
 21 20  1  0  0  0  0
 22 21  2  0  0  0  0
 22 23  1  0  0  0  0
M  END
>  <CHROM.1>
-162.94632640,178.44105794,-94.11234768,70.05418063,-94.00371833,-159.42122925
26.42391856,-138.38295912,100.23216419,-97.52308587,-56.30408746,-19.05237828
-7.54381934,9.68094493,2.69327955,-0.71273833,0.83430036

>  <Name>
1uui_lig

>  <RI>
0

>  <Rbt.Current_Directory>
/home/itssahil/PROJECTS/Mol_Feturizer/New_Systems/rnas/1uui

>  <Rbt.Executable>
rbdock ($Id: //depot/dev/client3/rdock/2013.1/src/exe/rbdock.cxx#4 $)

>  <Rbt.Library>
libRbt.so (2013.1, Build901 2013/11/27)

>  <Rbt.Parameter_File>
/export/apps/rDock/src/rDock_2013.1_src/data/scripts/dock_solv.prm

>  <Rbt.Receptor>
prm/blind_docking_80.prm

>  <SCORE>
-23.4907

>  <SCORE.INTER>
-20.5931

>  <SCORE.INTER.CONST>
1

>  <SCORE.INTER.POLAR>
-2.56464

>  <SCORE.INTER.ROT>
10

>  <SCORE.INTER.SOLV>
7.35895

>  <SCORE.INTER.VDW>
-17.8996

>  <SCORE.INTER.norm>
-0.895351

>  <SCORE.INTRA>
-4.06813

>  <SCORE.INTRA.DIHEDRAL>
-4.85089

>  <SCORE.INTRA.DIHEDRAL.0>
23.4151

>  <SCORE.INTRA.POLAR>
0

>  <SCORE.INTRA.POLAR.0>
0

>  <SCORE.INTRA.REPUL>
0

>  <SCORE.INTRA.REPUL.0>
0

>  <SCORE.INTRA.SOLV>
0.162142

>  <SCORE.INTRA.SOLV.lig_0>
-17.3568

>  <SCORE.INTRA.VDW>
-1.72376

>  <SCORE.INTRA.VDW.0>
1.0768

>  <SCORE.INTRA.norm>
-0.176875

>  <SCORE.RESTR>
1.17054

>  <SCORE.RESTR.CAVITY>
1.17054

>  <SCORE.RESTR.norm>
0.050893

>  <SCORE.SYSTEM>
0

>  <SCORE.SYSTEM.CONST>
0

>  <SCORE.SYSTEM.DIHEDRAL>
0

>  <SCORE.SYSTEM.SOLV>
0

>  <SCORE.SYSTEM.norm>
0

>  <SCORE.heavy>
23

>  <SCORE.norm>
-1.02133

>  <RMSD>
14.373

$$$$
1uui_lig
 OpenBabel11021811413D
libRbt.so/2013.1/901 2013/11/27
 23 24  0  0  0  0  0  0  0  0999 V2000
  -19.0915   -6.3395    7.2452 C   0  0  0  0  0  0  0  0  0  0  0  0
  -19.2790   -7.7967    9.7537 O   0  0  0  0  0  0  0  0  0  0  0  0
  -20.4923   -2.2264    9.8108 O   0  0  0  0  0  0  0  0  0  0  0  0
  -20.4267   -8.5490    9.3404 C   0  0  0  0  0  0  0  0  0  0  0  0
  -21.7086   -1.9930    9.0966 C   0  0  0  0  0  0  0  0  0  0  0  0
  -20.1694   -6.1796    6.2146 N   0  0  0  0  0  0  0  0  0  0  0  0
  -21.4351   -8.5942   10.4895 C   0  0  0  0  0  0  0  0  0  0  0  0
  -21.0887   -7.3499    6.2094 C   0  0  0  0  0  0  0  0  0  0  0  0
  -19.5858   -6.0016    4.8588 C   0  0  0  0  0  0  0  0  0  0  0  0
  -22.5221   -7.5363   10.2743 C   0  0  0  0  0  0  0  0  0  0  0  0
  -20.3524   -8.6581    5.8745 C   0  0  0  0  0  0  0  0  0  0  0  0
  -18.7177   -7.2048    4.4525 C   0  0  0  0  0  0  0  0  0  0  0  0
  -23.2974   -7.3637   11.5231 N   0  0  0  0  0  0  0  0  0  0  0  0
  -18.9944   -8.4081    5.2974 N   0  0  0  0  0  0  0  0  0  0  0  0
  -18.0389   -9.4404    5.3397 C   0  0  0  0  0  0  0  0  0  0  0  0
  -17.3866   -9.7395    6.4990 N   0  0  0  0  0  0  0  0  0  0  0  0
  -17.6469  -10.0733    4.1972 N   0  0  0  0  0  0  0  0  0  0  0  0
  -19.5867   -6.3998    9.7649 C   0  0  0  0  0  0  0  0  0  0  0  0
  -19.5083   -5.6451    8.5625 C   0  0  0  0  0  0  0  0  0  0  0  0
  -19.8109   -4.2552    8.5794 C   0  0  0  0  0  0  0  0  0  0  0  0
  -20.1902   -3.6244    9.7954 C   0  0  0  0  0  0  0  0  0  0  0  0
  -20.2688   -4.3810   10.9940 C   0  0  0  0  0  0  0  0  0  0  0  0
  -19.9660   -5.7680   10.9787 C   0  0  0  0  0  0  0  0  0  0  0  0
  2  4  1  0  0  0  0
  3  5  1  0  0  0  0
  4  7  1  0  0  0  0
  6  1  1  0  0  0  0
  7 10  1  0  0  0  0
  8  6  1  0  0  0  0
  8 11  1  0  0  0  0
  9  6  1  0  0  0  0
 10 13  1  0  0  0  0
 11 14  1  0  0  0  0
 12  9  1  0  0  0  0
 14 12  1  0  0  0  0
 14 15  1  0  0  0  0
 15 16  1  0  0  0  0
 15 17  1  0  0  0  0
 18  2  1  0  0  0  0
 18 23  2  0  0  0  0
 19  1  1  0  0  0  0
 19 18  1  0  0  0  0
 20 19  2  0  0  0  0
 21  3  1  0  0  0  0
 21 20  1  0  0  0  0
 22 21  2  0  0  0  0
 22 23  1  0  0  0  0
M  END
>  <CHROM.1>
-74.93732702,98.71278783,-94.25217600,-166.61190168,-168.86564762,-76.42693656
-167.26592734,101.49647440,-83.47899414,121.62087771,68.85858049,-19.99703008
-6.71975721,8.03520015,-0.58004151,1.11775278,-0.05881690

>  <Name>
1uui_lig

>  <RI>
0

>  <Rbt.Current_Directory>
/home/itssahil/PROJECTS/Mol_Feturizer/New_Systems/rnas/1uui

>  <Rbt.Executable>
rbdock ($Id: //depot/dev/client3/rdock/2013.1/src/exe/rbdock.cxx#4 $)

>  <Rbt.Library>
libRbt.so (2013.1, Build901 2013/11/27)

>  <Rbt.Parameter_File>
/export/apps/rDock/src/rDock_2013.1_src/data/scripts/dock_solv.prm

>  <Rbt.Receptor>
prm/blind_docking_60.prm

>  <SCORE>
-32.6346

>  <SCORE.INTER>
-28.5856

>  <SCORE.INTER.CONST>
1

>  <SCORE.INTER.POLAR>
-4.22268

>  <SCORE.INTER.ROT>
10

>  <SCORE.INTER.SOLV>
8.1118

>  <SCORE.INTER.VDW>
-17.9521

>  <SCORE.INTER.norm>
-1.24285

>  <SCORE.INTRA>
-4.16663

>  <SCORE.INTRA.DIHEDRAL>
-1.98077

>  <SCORE.INTRA.DIHEDRAL.0>
23.4151

>  <SCORE.INTRA.POLAR>
0

>  <SCORE.INTRA.POLAR.0>
0

>  <SCORE.INTRA.REPUL>
0

>  <SCORE.INTRA.REPUL.0>
0

>  <SCORE.INTRA.SOLV>
0.419671

>  <SCORE.INTRA.SOLV.lig_0>
-17.3568

>  <SCORE.INTRA.VDW>
-3.38608

>  <SCORE.INTRA.VDW.0>
1.0768

>  <SCORE.INTRA.norm>
-0.181158

>  <SCORE.RESTR>
0.117629

>  <SCORE.RESTR.CAVITY>
0.117629

>  <SCORE.RESTR.norm>
0.0051143

>  <SCORE.SYSTEM>
0

>  <SCORE.SYSTEM.CONST>
0

>  <SCORE.SYSTEM.DIHEDRAL>
0

>  <SCORE.SYSTEM.SOLV>
0

>  <SCORE.SYSTEM.norm>
0

>  <SCORE.heavy>
23

>  <SCORE.norm>
-1.4189

>  <RMSD>
14.374

$$$$
1uui_lig
 OpenBabel11021811413D
libRbt.so/2013.1/901 2013/11/27
 23 24  0  0  0  0  0  0  0  0999 V2000
  -19.6749   -7.1474    9.5137 C   0  0  0  0  0  0  0  0  0  0  0  0
  -18.0666   -7.9791    7.2392 O   0  0  0  0  0  0  0  0  0  0  0  0
  -15.7129   -8.2887   12.4226 O   0  0  0  0  0  0  0  0  0  0  0  0
  -17.6709   -9.1091    6.4514 C   0  0  0  0  0  0  0  0  0  0  0  0
  -16.1205   -9.5002   13.0630 C   0  0  0  0  0  0  0  0  0  0  0  0
  -20.0450   -6.2610   10.6655 N   0  0  0  0  0  0  0  0  0  0  0  0
  -18.4154  -10.3496    6.9475 C   0  0  0  0  0  0  0  0  0  0  0  0
  -21.5212   -6.1066   10.7747 C   0  0  0  0  0  0  0  0  0  0  0  0
  -19.4152   -4.9212   10.5285 C   0  0  0  0  0  0  0  0  0  0  0  0
  -19.9070  -10.2315    6.6186 C   0  0  0  0  0  0  0  0  0  0  0  0
  -22.1270   -5.4646    9.5151 C   0  0  0  0  0  0  0  0  0  0  0  0
  -19.8524   -4.2188    9.2317 C   0  0  0  0  0  0  0  0  0  0  0  0
  -20.5870  -11.5050    6.9447 N   0  0  0  0  0  0  0  0  0  0  0  0
  -21.0835   -4.8353    8.6464 N   0  0  0  0  0  0  0  0  0  0  0  0
  -21.3821   -4.5971    7.2919 C   0  0  0  0  0  0  0  0  0  0  0  0
  -20.4994   -4.9433    6.3121 N   0  0  0  0  0  0  0  0  0  0  0  0
  -22.4964   -3.8955    6.9377 N   0  0  0  0  0  0  0  0  0  0  0  0
  -17.4795   -8.0595    8.5411 C   0  0  0  0  0  0  0  0  0  0  0  0
  -18.2271   -7.6632    9.6836 C   0  0  0  0  0  0  0  0  0  0  0  0
  -17.6374   -7.7407   10.9759 C   0  0  0  0  0  0  0  0  0  0  0  0
  -16.3048   -8.2132   11.1226 C   0  0  0  0  0  0  0  0  0  0  0  0
  -15.5614   -8.6094    9.9800 C   0  0  0  0  0  0  0  0  0  0  0  0
  -16.1485   -8.5314    8.6896 C   0  0  0  0  0  0  0  0  0  0  0  0
  2  4  1  0  0  0  0
  3  5  1  0  0  0  0
  4  7  1  0  0  0  0
  6  1  1  0  0  0  0
  7 10  1  0  0  0  0
  8  6  1  0  0  0  0
  8 11  1  0  0  0  0
  9  6  1  0  0  0  0
 10 13  1  0  0  0  0
 11 14  1  0  0  0  0
 12  9  1  0  0  0  0
 14 12  1  0  0  0  0
 14 15  1  0  0  0  0
 15 16  1  0  0  0  0
 15 17  1  0  0  0  0
 18  2  1  0  0  0  0
 18 23  2  0  0  0  0
 19  1  1  0  0  0  0
 19 18  1  0  0  0  0
 20 19  2  0  0  0  0
 21  3  1  0  0  0  0
 21 20  1  0  0  0  0
 22 21  2  0  0  0  0
 22 23  1  0  0  0  0
M  END
>  <CHROM.1>
73.44557068,68.65505032,-161.63889391,172.81044871,-175.78735645,-133.19072855
45.69819322,-85.66130228,-141.34604992,-155.38516403,82.53977434,-19.01610636
-7.31896787,9.00991587,-2.97011272,0.77066155,-2.33287158

>  <Name>
1uui_lig

>  <RI>
0

>  <Rbt.Current_Directory>
/home/itssahil/PROJECTS/Mol_Feturizer/New_Systems/rnas/1uui

>  <Rbt.Executable>
rbdock ($Id: //depot/dev/client3/rdock/2013.1/src/exe/rbdock.cxx#4 $)

>  <Rbt.Library>
libRbt.so (2013.1, Build901 2013/11/27)

>  <Rbt.Parameter_File>
/export/apps/rDock/src/rDock_2013.1_src/data/scripts/dock_solv.prm

>  <Rbt.Receptor>
prm/blind_docking_100.prm

>  <SCORE>
-14.5294

>  <SCORE.INTER>
-9.59129

>  <SCORE.INTER.CONST>
1

>  <SCORE.INTER.POLAR>
-0.774597

>  <SCORE.INTER.ROT>
10

>  <SCORE.INTER.SOLV>
4.75597

>  <SCORE.INTER.VDW>
-15.6642

>  <SCORE.INTER.norm>
-0.417013

>  <SCORE.INTRA>
-5.24329

>  <SCORE.INTRA.DIHEDRAL>
-10.3906

>  <SCORE.INTRA.DIHEDRAL.0>
23.4151

>  <SCORE.INTRA.POLAR>
0

>  <SCORE.INTRA.POLAR.0>
0

>  <SCORE.INTRA.REPUL>
0

>  <SCORE.INTRA.REPUL.0>
0

>  <SCORE.INTRA.SOLV>
0.0540511

>  <SCORE.INTRA.SOLV.lig_0>
-17.3568

>  <SCORE.INTRA.VDW>
-0.0749971

>  <SCORE.INTRA.VDW.0>
1.0768

>  <SCORE.INTRA.norm>
-0.227969

>  <SCORE.RESTR>
0.30516

>  <SCORE.RESTR.CAVITY>
0.30516

>  <SCORE.RESTR.norm>
0.0132678

>  <SCORE.SYSTEM>
0

>  <SCORE.SYSTEM.CONST>
0

>  <SCORE.SYSTEM.DIHEDRAL>
0

>  <SCORE.SYSTEM.SOLV>
0

>  <SCORE.SYSTEM.norm>
0

>  <SCORE.heavy>
23

>  <SCORE.norm>
-0.631714

>  <RMSD>
14.385

$$$$
1uui_lig
 OpenBabel11021811413D
libRbt.so/2013.1/901 2013/11/27
 23 24  0  0  0  0  0  0  0  0999 V2000
  -20.7805   -6.8205    8.4727 C   0  0  0  0  0  0  0  0  0  0  0  0
  -21.1329   -8.9170    6.4898 O   0  0  0  0  0  0  0  0  0  0  0  0
  -15.9174   -8.1534    8.6622 O   0  0  0  0  0  0  0  0  0  0  0  0
  -21.3308   -8.0369    5.3761 C   0  0  0  0  0  0  0  0  0  0  0  0
  -15.7453   -8.9962    9.8041 C   0  0  0  0  0  0  0  0  0  0  0  0
  -20.9444   -6.9123    9.9607 N   0  0  0  0  0  0  0  0  0  0  0  0
  -21.3745   -8.8617    4.0889 C   0  0  0  0  0  0  0  0  0  0  0  0
  -22.3792   -6.8470   10.3505 C   0  0  0  0  0  0  0  0  0  0  0  0
  -20.1946   -5.8265   10.6457 C   0  0  0  0  0  0  0  0  0  0  0  0
  -20.2060   -9.8521    4.0616 C   0  0  0  0  0  0  0  0  0  0  0  0
  -23.0328   -5.5234    9.9182 C   0  0  0  0  0  0  0  0  0  0  0  0
  -20.6785   -4.4355   10.2016 C   0  0  0  0  0  0  0  0  0  0  0  0
  -20.1432  -10.5055    2.7351 N   0  0  0  0  0  0  0  0  0  0  0  0
  -22.0174   -4.4923    9.5365 N   0  0  0  0  0  0  0  0  0  0  0  0
  -22.4179   -3.4133    8.7267 C   0  0  0  0  0  0  0  0  0  0  0  0
  -21.9169   -2.1624    8.9341 N   0  0  0  0  0  0  0  0  0  0  0  0
  -23.4131   -3.5653    7.8068 N   0  0  0  0  0  0  0  0  0  0  0  0
  -19.8260   -8.7261    7.0391 C   0  0  0  0  0  0  0  0  0  0  0  0
  -19.6048   -7.7127    8.0113 C   0  0  0  0  0  0  0  0  0  0  0  0
  -18.3023   -7.5236    8.5515 C   0  0  0  0  0  0  0  0  0  0  0  0
  -17.2267   -8.3462    8.1193 C   0  0  0  0  0  0  0  0  0  0  0  0
  -17.4511   -9.3581    7.1493 C   0  0  0  0  0  0  0  0  0  0  0  0
  -18.7503   -9.5470    6.6087 C   0  0  0  0  0  0  0  0  0  0  0  0
  2  4  1  0  0  0  0
  3  5  1  0  0  0  0
  4  7  1  0  0  0  0
  6  1  1  0  0  0  0
  7 10  1  0  0  0  0
  8  6  1  0  0  0  0
  8 11  1  0  0  0  0
  9  6  1  0  0  0  0
 10 13  1  0  0  0  0
 11 14  1  0  0  0  0
 12  9  1  0  0  0  0
 14 12  1  0  0  0  0
 14 15  1  0  0  0  0
 15 16  1  0  0  0  0
 15 17  1  0  0  0  0
 18  2  1  0  0  0  0
 18 23  2  0  0  0  0
 19  1  1  0  0  0  0
 19 18  1  0  0  0  0
 20 19  2  0  0  0  0
 21  3  1  0  0  0  0
 21 20  1  0  0  0  0
 22 21  2  0  0  0  0
 22 23  1  0  0  0  0
M  END
>  <CHROM.1>
110.38561628,-47.48391426,-144.43288206,-171.94097711,-159.51945434,142.35120012
144.24994044,-9.68176621,86.04461224,123.26500321,91.59888105,-20.24201923
-7.13128697,7.84838349,-2.11326830,0.54438975,-2.22227924

>  <Name>
1uui_lig

>  <RI>
0

>  <Rbt.Current_Directory>
/home/itssahil/PROJECTS/Mol_Feturizer/New_Systems/rnas/1uui

>  <Rbt.Executable>
rbdock ($Id: //depot/dev/client3/rdock/2013.1/src/exe/rbdock.cxx#4 $)

>  <Rbt.Library>
libRbt.so (2013.1, Build901 2013/11/27)

>  <Rbt.Parameter_File>
/export/apps/rDock/src/rDock_2013.1_src/data/scripts/dock_solv.prm

>  <Rbt.Receptor>
prm/blind_docking_60.prm

>  <SCORE>
-17.7942

>  <SCORE.INTER>
-17.4355

>  <SCORE.INTER.CONST>
1

>  <SCORE.INTER.POLAR>
-2.12063

>  <SCORE.INTER.ROT>
10

>  <SCORE.INTER.SOLV>
6.01177

>  <SCORE.INTER.VDW>
-16.8255

>  <SCORE.INTER.norm>
-0.758066

>  <SCORE.INTRA>
-0.35864

>  <SCORE.INTRA.DIHEDRAL>
1.10708

>  <SCORE.INTRA.DIHEDRAL.0>
23.4151

>  <SCORE.INTRA.POLAR>
0

>  <SCORE.INTRA.POLAR.0>
0

>  <SCORE.INTRA.REPUL>
0

>  <SCORE.INTRA.REPUL.0>
0

>  <SCORE.INTRA.SOLV>
0.0783653

>  <SCORE.INTRA.SOLV.lig_0>
-17.3568

>  <SCORE.INTRA.VDW>
-0.951363

>  <SCORE.INTRA.VDW.0>
1.0768

>  <SCORE.INTRA.norm>
-0.015593

>  <SCORE.RESTR>
0

>  <SCORE.RESTR.CAVITY>
0

>  <SCORE.RESTR.norm>
0

>  <SCORE.SYSTEM>
0

>  <SCORE.SYSTEM.CONST>
0

>  <SCORE.SYSTEM.DIHEDRAL>
0

>  <SCORE.SYSTEM.SOLV>
0

>  <SCORE.SYSTEM.norm>
0

>  <SCORE.heavy>
23

>  <SCORE.norm>
-0.773659

>  <RMSD>
14.386

$$$$
1uui_lig
 OpenBabel11021811413D
libRbt.so/2013.1/901 2013/11/27
 23 24  0  0  0  0  0  0  0  0999 V2000
  -19.7988   -8.0446    9.1366 C   0  0  0  0  0  0  0  0  0  0  0  0
  -16.9180   -8.0546    8.7464 O   0  0  0  0  0  0  0  0  0  0  0  0
  -20.1983   -9.8084    4.4258 O   0  0  0  0  0  0  0  0  0  0  0  0
  -17.0193   -8.9739    9.8412 C   0  0  0  0  0  0  0  0  0  0  0  0
  -20.4724  -11.2038    4.5737 C   0  0  0  0  0  0  0  0  0  0  0  0
  -19.3666   -6.6457    9.4615 N   0  0  0  0  0  0  0  0  0  0  0  0
  -15.9659   -8.6183   10.8915 C   0  0  0  0  0  0  0  0  0  0  0  0
  -19.3135   -6.4252   10.9323 C   0  0  0  0  0  0  0  0  0  0  0  0
  -20.2817   -5.6500    8.8436 C   0  0  0  0  0  0  0  0  0  0  0  0
  -16.4251   -9.0909   12.2746 C   0  0  0  0  0  0  0  0  0  0  0  0
  -20.6880   -6.6242   11.5936 C   0  0  0  0  0  0  0  0  0  0  0  0
  -21.7277   -5.8251    9.3382 C   0  0  0  0  0  0  0  0  0  0  0  0
  -15.4549   -8.6407   13.2976 N   0  0  0  0  0  0  0  0  0  0  0  0
  -21.7983   -6.6408   10.5903 N   0  0  0  0  0  0  0  0  0  0  0  0
  -23.0257   -7.2297   10.9469 C   0  0  0  0  0  0  0  0  0  0  0  0
  -23.9975   -7.4356   10.0130 N   0  0  0  0  0  0  0  0  0  0  0  0
  -23.3225   -7.4834   12.2535 N   0  0  0  0  0  0  0  0  0  0  0  0
  -17.7432   -8.4906    7.6624 C   0  0  0  0  0  0  0  0  0  0  0  0
  -19.1575   -8.5039    7.8066 C   0  0  0  0  0  0  0  0  0  0  0  0
  -19.9740   -8.9426    6.7273 C   0  0  0  0  0  0  0  0  0  0  0  0
  -19.3759   -9.3659    5.5093 C   0  0  0  0  0  0  0  0  0  0  0  0
  -17.9634   -9.3502    5.3680 C   0  0  0  0  0  0  0  0  0  0  0  0
  -17.1476   -8.9137    6.4448 C   0  0  0  0  0  0  0  0  0  0  0  0
  2  4  1  0  0  0  0
  3  5  1  0  0  0  0
  4  7  1  0  0  0  0
  6  1  1  0  0  0  0
  7 10  1  0  0  0  0
  8  6  1  0  0  0  0
  8 11  1  0  0  0  0
  9  6  1  0  0  0  0
 10 13  1  0  0  0  0
 11 14  1  0  0  0  0
 12  9  1  0  0  0  0
 14 12  1  0  0  0  0
 14 15  1  0  0  0  0
 15 16  1  0  0  0  0
 15 17  1  0  0  0  0
 18  2  1  0  0  0  0
 18 23  2  0  0  0  0
 19  1  1  0  0  0  0
 19 18  1  0  0  0  0
 20 19  2  0  0  0  0
 21  3  1  0  0  0  0
 21 20  1  0  0  0  0
 22 21  2  0  0  0  0
 22 23  1  0  0  0  0
M  END
>  <CHROM.1>
170.86771914,153.81285865,-149.57714041,-175.20676962,-56.06248613,-170.77005591
69.22730652,-119.66226247,66.44911917,56.95767899,-86.82209762,-19.45716394
-8.07851034,9.06959196,1.83550429,-0.24921590,1.24227185

>  <Name>
1uui_lig

>  <RI>
0

>  <Rbt.Current_Directory>
/home/itssahil/PROJECTS/Mol_Feturizer/New_Systems/rnas/1uui

>  <Rbt.Executable>
rbdock ($Id: //depot/dev/client3/rdock/2013.1/src/exe/rbdock.cxx#4 $)

>  <Rbt.Library>
libRbt.so (2013.1, Build901 2013/11/27)

>  <Rbt.Parameter_File>
/export/apps/rDock/src/rDock_2013.1_src/data/scripts/dock_solv.prm

>  <Rbt.Receptor>
prm/blind_docking_80.prm

>  <SCORE>
-38.3847

>  <SCORE.INTER>
-32.5368

>  <SCORE.INTER.CONST>
1

>  <SCORE.INTER.POLAR>
-4.14157

>  <SCORE.INTER.ROT>
10

>  <SCORE.INTER.SOLV>
8.14085

>  <SCORE.INTER.VDW>
-20.8663

>  <SCORE.INTER.norm>
-1.41464

>  <SCORE.INTRA>
-5.91509

>  <SCORE.INTRA.DIHEDRAL>
-5.70406

>  <SCORE.INTRA.DIHEDRAL.0>
23.4151

>  <SCORE.INTRA.POLAR>
-0.240726

>  <SCORE.INTRA.POLAR.0>
0

>  <SCORE.INTRA.REPUL>
0

>  <SCORE.INTRA.REPUL.0>
0

>  <SCORE.INTRA.SOLV>
0.228465

>  <SCORE.INTRA.SOLV.lig_0>
-17.3568

>  <SCORE.INTRA.VDW>
-2.35882

>  <SCORE.INTRA.VDW.0>
1.0768

>  <SCORE.INTRA.norm>
-0.257178

>  <SCORE.RESTR>
0.0671982

>  <SCORE.RESTR.CAVITY>
0.0671982

>  <SCORE.RESTR.norm>
0.00292166

>  <SCORE.SYSTEM>
0

>  <SCORE.SYSTEM.CONST>
0

>  <SCORE.SYSTEM.DIHEDRAL>
0

>  <SCORE.SYSTEM.SOLV>
0

>  <SCORE.SYSTEM.norm>
0

>  <SCORE.heavy>
23

>  <SCORE.norm>
-1.6689

>  <RMSD>
14.389

$$$$
1uui_lig
 OpenBabel11021811413D
libRbt.so/2013.1/901 2013/11/27
 23 24  0  0  0  0  0  0  0  0999 V2000
  -20.1888   -6.1470    7.0498 C   0  0  0  0  0  0  0  0  0  0  0  0
  -21.5115   -7.0677    9.4693 O   0  0  0  0  0  0  0  0  0  0  0  0
  -23.5154   -2.3537    6.9660 O   0  0  0  0  0  0  0  0  0  0  0  0
  -20.6948   -6.7131   10.5924 C   0  0  0  0  0  0  0  0  0  0  0  0
  -22.7947   -1.2170    7.4481 C   0  0  0  0  0  0  0  0  0  0  0  0
  -18.9099   -5.5137    7.5109 N   0  0  0  0  0  0  0  0  0  0  0  0
  -21.0684   -7.5993   11.7817 C   0  0  0  0  0  0  0  0  0  0  0  0
  -18.1468   -4.9443    6.3671 C   0  0  0  0  0  0  0  0  0  0  0  0
  -18.0604   -6.4971    8.2331 C   0  0  0  0  0  0  0  0  0  0  0  0
  -22.5900   -7.7616   11.8562 C   0  0  0  0  0  0  0  0  0  0  0  0
  -17.7573   -6.0228    5.3418 C   0  0  0  0  0  0  0  0  0  0  0  0
  -17.6991   -7.6974    7.3415 C   0  0  0  0  0  0  0  0  0  0  0  0
  -23.2176   -6.4391   12.0748 N   0  0  0  0  0  0  0  0  0  0  0  0
  -17.9185   -7.4057    5.8906 N   0  0  0  0  0  0  0  0  0  0  0  0
  -18.0294   -8.4832    4.9922 C   0  0  0  0  0  0  0  0  0  0  0  0
  -16.9368   -9.2270    4.6574 N   0  0  0  0  0  0  0  0  0  0  0  0
  -19.1996   -8.7236    4.3345 N   0  0  0  0  0  0  0  0  0  0  0  0
  -22.0149   -5.8873    8.8373 C   0  0  0  0  0  0  0  0  0  0  0  0
  -21.4003   -5.3984    7.6523 C   0  0  0  0  0  0  0  0  0  0  0  0
  -21.9017   -4.2215    7.0298 C   0  0  0  0  0  0  0  0  0  0  0  0
  -23.0138   -3.5379    7.5923 C   0  0  0  0  0  0  0  0  0  0  0  0
  -23.6261   -4.0294    8.7749 C   0  0  0  0  0  0  0  0  0  0  0  0
  -23.1260   -5.2032    9.3977 C   0  0  0  0  0  0  0  0  0  0  0  0
  2  4  1  0  0  0  0
  3  5  1  0  0  0  0
  4  7  1  0  0  0  0
  6  1  1  0  0  0  0
  7 10  1  0  0  0  0
  8  6  1  0  0  0  0
  8 11  1  0  0  0  0
  9  6  1  0  0  0  0
 10 13  1  0  0  0  0
 11 14  1  0  0  0  0
 12  9  1  0  0  0  0
 14 12  1  0  0  0  0
 14 15  1  0  0  0  0
 15 16  1  0  0  0  0
 15 17  1  0  0  0  0
 18  2  1  0  0  0  0
 18 23  2  0  0  0  0
 19  1  1  0  0  0  0
 19 18  1  0  0  0  0
 20 19  2  0  0  0  0
 21  3  1  0  0  0  0
 21 20  1  0  0  0  0
 22 21  2  0  0  0  0
 22 23  1  0  0  0  0
M  END
>  <CHROM.1>
134.62562613,-41.44966449,-116.56005284,-62.18648423,23.79596982,96.20040623
-90.05936822,-127.11304354,100.65736199,-96.11243416,-86.82243268,-20.55781964
-6.03551850,7.87850770,0.16621528,0.77280392,-0.86405306

>  <Name>
1uui_lig

>  <RI>
0

>  <Rbt.Current_Directory>
/home/itssahil/PROJECTS/Mol_Feturizer/New_Systems/rnas/1uui

>  <Rbt.Executable>
rbdock ($Id: //depot/dev/client3/rdock/2013.1/src/exe/rbdock.cxx#4 $)

>  <Rbt.Library>
libRbt.so (2013.1, Build901 2013/11/27)

>  <Rbt.Parameter_File>
/export/apps/rDock/src/rDock_2013.1_src/data/scripts/dock_solv.prm

>  <Rbt.Receptor>
prm/blind_docking_40.prm

>  <SCORE>
-27.1741

>  <SCORE.INTER>
-27.6979

>  <SCORE.INTER.CONST>
1

>  <SCORE.INTER.POLAR>
-3.6193

>  <SCORE.INTER.ROT>
10

>  <SCORE.INTER.SOLV>
8.06107

>  <SCORE.INTER.VDW>
-19.3546

>  <SCORE.INTER.norm>
-1.20425

>  <SCORE.INTRA>
0.476589

>  <SCORE.INTRA.DIHEDRAL>
3.77945

>  <SCORE.INTRA.DIHEDRAL.0>
23.4151

>  <SCORE.INTRA.POLAR>
0

>  <SCORE.INTRA.POLAR.0>
0

>  <SCORE.INTRA.REPUL>
0

>  <SCORE.INTRA.REPUL.0>
0

>  <SCORE.INTRA.SOLV>
0.750465

>  <SCORE.INTRA.SOLV.lig_0>
-17.3568

>  <SCORE.INTRA.VDW>
-1.78837

>  <SCORE.INTRA.VDW.0>
1.0768

>  <SCORE.INTRA.norm>
0.0207213

>  <SCORE.RESTR>
0.0471321

>  <SCORE.RESTR.CAVITY>
0.0471321

>  <SCORE.RESTR.norm>
0.00204922

>  <SCORE.SYSTEM>
0

>  <SCORE.SYSTEM.CONST>
0

>  <SCORE.SYSTEM.DIHEDRAL>
0

>  <SCORE.SYSTEM.SOLV>
0

>  <SCORE.SYSTEM.norm>
0

>  <SCORE.heavy>
23

>  <SCORE.norm>
-1.18148

>  <RMSD>
14.393

$$$$
1uui_lig
 OpenBabel11021811413D
libRbt.so/2013.1/901 2013/11/27
 23 24  0  0  0  0  0  0  0  0999 V2000
  -19.7903   -7.4177    9.4436 C   0  0  0  0  0  0  0  0  0  0  0  0
  -18.2285   -8.5465    7.2669 O   0  0  0  0  0  0  0  0  0  0  0  0
  -15.7625   -8.1551   12.3922 O   0  0  0  0  0  0  0  0  0  0  0  0
  -18.2730   -9.9153    6.8444 C   0  0  0  0  0  0  0  0  0  0  0  0
  -15.9854   -9.3622   13.1253 C   0  0  0  0  0  0  0  0  0  0  0  0
  -20.5481   -7.4945   10.7356 N   0  0  0  0  0  0  0  0  0  0  0  0
  -18.8937   -9.9875    5.4484 C   0  0  0  0  0  0  0  0  0  0  0  0
  -22.0168   -7.5286   10.4984 C   0  0  0  0  0  0  0  0  0  0  0  0
  -20.2146   -6.3439   11.6162 C   0  0  0  0  0  0  0  0  0  0  0  0
  -17.9514   -9.3496    4.4227 C   0  0  0  0  0  0  0  0  0  0  0  0
  -22.5119   -6.2651    9.7742 C   0  0  0  0  0  0  0  0  0  0  0  0
  -20.5546   -5.0009   10.9477 C   0  0  0  0  0  0  0  0  0  0  0  0
  -17.9951   -7.8767    4.5610 N   0  0  0  0  0  0  0  0  0  0  0  0
  -21.4934   -5.1688    9.7950 N   0  0  0  0  0  0  0  0  0  0  0  0
  -21.5879   -4.1372    8.8424 C   0  0  0  0  0  0  0  0  0  0  0  0
  -21.7388   -4.4232    7.5179 N   0  0  0  0  0  0  0  0  0  0  0  0
  -21.3963   -2.8363    9.2038 N   0  0  0  0  0  0  0  0  0  0  0  0
  -17.6131   -8.4508    8.5546 C   0  0  0  0  0  0  0  0  0  0  0  0
  -18.3373   -7.9051    9.6496 C   0  0  0  0  0  0  0  0  0  0  0  0
  -17.7196   -7.8078   10.9274 C   0  0  0  0  0  0  0  0  0  0  0  0
  -16.3825   -8.2554   11.1071 C   0  0  0  0  0  0  0  0  0  0  0  0
  -15.6625   -8.8011   10.0121 C   0  0  0  0  0  0  0  0  0  0  0  0
  -16.2775   -8.8976    8.7361 C   0  0  0  0  0  0  0  0  0  0  0  0
  2  4  1  0  0  0  0
  3  5  1  0  0  0  0
  4  7  1  0  0  0  0
  6  1  1  0  0  0  0
  7 10  1  0  0  0  0
  8  6  1  0  0  0  0
  8 11  1  0  0  0  0
  9  6  1  0  0  0  0
 10 13  1  0  0  0  0
 11 14  1  0  0  0  0
 12  9  1  0  0  0  0
 14 12  1  0  0  0  0
 14 15  1  0  0  0  0
 15 16  1  0  0  0  0
 15 17  1  0  0  0  0
 18  2  1  0  0  0  0
 18 23  2  0  0  0  0
 19  1  1  0  0  0  0
 19 18  1  0  0  0  0
 20 19  2  0  0  0  0
 21  3  1  0  0  0  0
 21 20  1  0  0  0  0
 22 21  2  0  0  0  0
 22 23  1  0  0  0  0
M  END
>  <CHROM.1>
-178.22543874,68.10567985,-158.95068783,-74.65842200,-56.63474515,-49.51708191
77.62443974,-72.43383214,-119.97661719,153.66721787,91.21083322,-19.03317329
-7.34660405,9.14741780,-2.84111070,0.68860104,-1.80480024

>  <Name>
1uui_lig

>  <RI>
0

>  <Rbt.Current_Directory>
/home/itssahil/PROJECTS/Mol_Feturizer/New_Systems/rnas/1uui

>  <Rbt.Executable>
rbdock ($Id: //depot/dev/client3/rdock/2013.1/src/exe/rbdock.cxx#4 $)

>  <Rbt.Library>
libRbt.so (2013.1, Build901 2013/11/27)

>  <Rbt.Parameter_File>
/export/apps/rDock/src/rDock_2013.1_src/data/scripts/dock_solv.prm

>  <Rbt.Receptor>
prm/blind_docking_80.prm

>  <SCORE>
-24.6332

>  <SCORE.INTER>
-17.7802

>  <SCORE.INTER.CONST>
1

>  <SCORE.INTER.POLAR>
-1.18259

>  <SCORE.INTER.ROT>
10

>  <SCORE.INTER.SOLV>
6.05925

>  <SCORE.INTER.VDW>
-20.1979

>  <SCORE.INTER.norm>
-0.77305

>  <SCORE.INTRA>
-6.97417

>  <SCORE.INTRA.DIHEDRAL>
-8.63361

>  <SCORE.INTRA.DIHEDRAL.0>
23.4151

>  <SCORE.INTRA.POLAR>
-0.474366

>  <SCORE.INTRA.POLAR.0>
0

>  <SCORE.INTRA.REPUL>
0

>  <SCORE.INTRA.REPUL.0>
0

>  <SCORE.INTRA.SOLV>
0.447467

>  <SCORE.INTRA.SOLV.lig_0>
-17.3568

>  <SCORE.INTRA.VDW>
-1.26825

>  <SCORE.INTRA.VDW.0>
1.0768

>  <SCORE.INTRA.norm>
-0.303225

>  <SCORE.RESTR>
0.121081

>  <SCORE.RESTR.CAVITY>
0.121081

>  <SCORE.RESTR.norm>
0.00526437

>  <SCORE.SYSTEM>
0

>  <SCORE.SYSTEM.CONST>
0

>  <SCORE.SYSTEM.DIHEDRAL>
0

>  <SCORE.SYSTEM.SOLV>
0

>  <SCORE.SYSTEM.norm>
0

>  <SCORE.heavy>
23

>  <SCORE.norm>
-1.07101

>  <RMSD>
14.393

$$$$
1uui_lig
 OpenBabel11021811413D
libRbt.so/2013.1/901 2013/11/27
 23 24  0  0  0  0  0  0  0  0999 V2000
  -19.9035   -6.4252    7.2761 C   0  0  0  0  0  0  0  0  0  0  0  0
  -21.0549   -5.1524    9.6225 O   0  0  0  0  0  0  0  0  0  0  0  0
  -16.2817   -8.1928   10.3125 O   0  0  0  0  0  0  0  0  0  0  0  0
  -20.7491   -3.7525    9.5923 C   0  0  0  0  0  0  0  0  0  0  0  0
  -16.4816   -9.1634   11.3430 C   0  0  0  0  0  0  0  0  0  0  0  0
  -20.8564   -7.5597    7.0429 N   0  0  0  0  0  0  0  0  0  0  0  0
  -21.5411   -3.0921    8.4628 C   0  0  0  0  0  0  0  0  0  0  0  0
  -20.2361   -8.8660    7.3944 C   0  0  0  0  0  0  0  0  0  0  0  0
  -21.3090   -7.5908    5.6271 C   0  0  0  0  0  0  0  0  0  0  0  0
  -23.0429   -3.2933    8.6891 C   0  0  0  0  0  0  0  0  0  0  0  0
  -18.9893   -9.1585    6.5424 C   0  0  0  0  0  0  0  0  0  0  0  0
  -20.1270   -7.7591    4.6572 C   0  0  0  0  0  0  0  0  0  0  0  0
  -23.7707   -3.0426    7.4250 N   0  0  0  0  0  0  0  0  0  0  0  0
  -18.8987   -8.2588    5.3499 N   0  0  0  0  0  0  0  0  0  0  0  0
  -17.6503   -8.0869    4.7234 C   0  0  0  0  0  0  0  0  0  0  0  0
  -16.8031   -9.1420    4.5561 N   0  0  0  0  0  0  0  0  0  0  0  0
  -17.2035   -6.8420    4.3918 N   0  0  0  0  0  0  0  0  0  0  0  0
  -19.8552   -5.9126    9.7925 C   0  0  0  0  0  0  0  0  0  0  0  0
  -19.2556   -6.5538    8.6742 C   0  0  0  0  0  0  0  0  0  0  0  0
  -18.0649   -7.3125    8.8490 C   0  0  0  0  0  0  0  0  0  0  0  0
  -17.4779   -7.4280   10.1383 C   0  0  0  0  0  0  0  0  0  0  0  0
  -18.0782   -6.7854   11.2528 C   0  0  0  0  0  0  0  0  0  0  0  0
  -19.2671   -6.0289   11.0798 C   0  0  0  0  0  0  0  0  0  0  0  0
  2  4  1  0  0  0  0
  3  5  1  0  0  0  0
  4  7  1  0  0  0  0
  6  1  1  0  0  0  0
  7 10  1  0  0  0  0
  8  6  1  0  0  0  0
  8 11  1  0  0  0  0
  9  6  1  0  0  0  0
 10 13  1  0  0  0  0
 11 14  1  0  0  0  0
 12  9  1  0  0  0  0
 14 12  1  0  0  0  0
 14 15  1  0  0  0  0
 15 16  1  0  0  0  0
 15 17  1  0  0  0  0
 18  2  1  0  0  0  0
 18 23  2  0  0  0  0
 19  1  1  0  0  0  0
 19 18  1  0  0  0  0
 20 19  2  0  0  0  0
 21  3  1  0  0  0  0
 21 20  1  0  0  0  0
 22 21  2  0  0  0  0
 22 23  1  0  0  0  0
M  END
>  <CHROM.1>
136.08246895,59.38840829,-47.97862292,-162.41659535,-147.39752977,40.08273518
-26.26397050,-123.33671801,-101.53940988,-91.73650669,-126.38712927,-19.45285262
-6.74343441,7.88837279,2.61088686,-0.70301644,1.27169470

>  <Name>
1uui_lig

>  <RI>
0

>  <Rbt.Current_Directory>
/home/itssahil/PROJECTS/Mol_Feturizer/New_Systems/rnas/1uui

>  <Rbt.Executable>
rbdock ($Id: //depot/dev/client3/rdock/2013.1/src/exe/rbdock.cxx#4 $)

>  <Rbt.Library>
libRbt.so (2013.1, Build901 2013/11/27)

>  <Rbt.Parameter_File>
/export/apps/rDock/src/rDock_2013.1_src/data/scripts/dock_solv.prm

>  <Rbt.Receptor>
prm/blind_docking_100.prm

>  <SCORE>
-23.8474

>  <SCORE.INTER>
-23.1256

>  <SCORE.INTER.CONST>
1

>  <SCORE.INTER.POLAR>
-3.19659

>  <SCORE.INTER.ROT>
10

>  <SCORE.INTER.SOLV>
8.76653

>  <SCORE.INTER.VDW>
-17.9506

>  <SCORE.INTER.norm>
-1.00546

>  <SCORE.INTRA>
-0.904837

>  <SCORE.INTRA.DIHEDRAL>
-2.01166

>  <SCORE.INTRA.DIHEDRAL.0>
23.4151

>  <SCORE.INTRA.POLAR>
0

>  <SCORE.INTRA.POLAR.0>
0

>  <SCORE.INTRA.REPUL>
0

>  <SCORE.INTRA.REPUL.0>
0

>  <SCORE.INTRA.SOLV>
0.287211

>  <SCORE.INTRA.SOLV.lig_0>
-17.3568

>  <SCORE.INTRA.VDW>
-0.0426115

>  <SCORE.INTRA.VDW.0>
1.0768

>  <SCORE.INTRA.norm>
-0.0393408

>  <SCORE.RESTR>
0.183066

>  <SCORE.RESTR.CAVITY>
0.183066

>  <SCORE.RESTR.norm>
0.00795938

>  <SCORE.SYSTEM>
0

>  <SCORE.SYSTEM.CONST>
0

>  <SCORE.SYSTEM.DIHEDRAL>
0

>  <SCORE.SYSTEM.SOLV>
0

>  <SCORE.SYSTEM.norm>
0

>  <SCORE.heavy>
23

>  <SCORE.norm>
-1.03684

>  <RMSD>
14.399

$$$$
1uui_lig
 OpenBabel11021811413D
libRbt.so/2013.1/901 2013/11/27
 23 24  0  0  0  0  0  0  0  0999 V2000
  -20.1407   -7.1135    8.6741 C   0  0  0  0  0  0  0  0  0  0  0  0
  -17.2751   -7.2969    9.1284 O   0  0  0  0  0  0  0  0  0  0  0  0
  -19.7455  -11.3805    6.0098 O   0  0  0  0  0  0  0  0  0  0  0  0
  -17.3902   -7.6109   10.5220 C   0  0  0  0  0  0  0  0  0  0  0  0
  -19.8046  -10.9696    4.6416 C   0  0  0  0  0  0  0  0  0  0  0  0
  -20.6586   -7.4828   10.0323 N   0  0  0  0  0  0  0  0  0  0  0  0
  -16.4831   -8.7998   10.8430 C   0  0  0  0  0  0  0  0  0  0  0  0
  -22.1381   -7.6433   10.0202 C   0  0  0  0  0  0  0  0  0  0  0  0
  -20.2792   -6.4594   11.0418 C   0  0  0  0  0  0  0  0  0  0  0  0
  -16.4715   -9.0567   12.3533 C   0  0  0  0  0  0  0  0  0  0  0  0
  -22.8543   -6.3433    9.6164 C   0  0  0  0  0  0  0  0  0  0  0  0
  -20.8403   -5.0729   10.6826 C   0  0  0  0  0  0  0  0  0  0  0  0
  -15.4039   -8.2484   12.9836 N   0  0  0  0  0  0  0  0  0  0  0  0
  -21.9438   -5.1571    9.6758 N   0  0  0  0  0  0  0  0  0  0  0  0
  -22.2858   -4.0025    8.9475 C   0  0  0  0  0  0  0  0  0  0  0  0
  -21.4297   -2.9437    8.8769 N   0  0  0  0  0  0  0  0  0  0  0  0
  -23.5311   -3.8621    8.4098 N   0  0  0  0  0  0  0  0  0  0  0  0
  -17.8965   -8.3183    8.3430 C   0  0  0  0  0  0  0  0  0  0  0  0
  -19.2955   -8.2714    8.0944 C   0  0  0  0  0  0  0  0  0  0  0  0
  -19.9098   -9.2919    7.3165 C   0  0  0  0  0  0  0  0  0  0  0  0
  -19.1258  -10.3543    6.7902 C   0  0  0  0  0  0  0  0  0  0  0  0
  -17.7288  -10.3976    7.0390 C   0  0  0  0  0  0  0  0  0  0  0  0
  -17.1149   -9.3803    7.8161 C   0  0  0  0  0  0  0  0  0  0  0  0
  2  4  1  0  0  0  0
  3  5  1  0  0  0  0
  4  7  1  0  0  0  0
  6  1  1  0  0  0  0
  7 10  1  0  0  0  0
  8  6  1  0  0  0  0
  8 11  1  0  0  0  0
  9  6  1  0  0  0  0
 10 13  1  0  0  0  0
 11 14  1  0  0  0  0
 12  9  1  0  0  0  0
 14 12  1  0  0  0  0
 14 15  1  0  0  0  0
 15 16  1  0  0  0  0
 15 17  1  0  0  0  0
 18  2  1  0  0  0  0
 18 23  2  0  0  0  0
 19  1  1  0  0  0  0
 19 18  1  0  0  0  0
 20 19  2  0  0  0  0
 21  3  1  0  0  0  0
 21 20  1  0  0  0  0
 22 21  2  0  0  0  0
 22 23  1  0  0  0  0
M  END
>  <CHROM.1>
70.65682818,173.83235234,-112.49986958,-88.61474752,178.22380149,-174.14779538
-44.74160937,110.53632391,84.84827893,-90.17828254,86.49819477,-19.55855396
-7.57851633,9.08104141,2.52299452,-0.61011939,0.83021610

>  <Name>
1uui_lig

>  <RI>
0

>  <Rbt.Current_Directory>
/home/itssahil/PROJECTS/Mol_Feturizer/New_Systems/rnas/1uui

>  <Rbt.Executable>
rbdock ($Id: //depot/dev/client3/rdock/2013.1/src/exe/rbdock.cxx#4 $)

>  <Rbt.Library>
libRbt.so (2013.1, Build901 2013/11/27)

>  <Rbt.Parameter_File>
/export/apps/rDock/src/rDock_2013.1_src/data/scripts/dock_solv.prm

>  <Rbt.Receptor>
prm/blind_docking_80.prm

>  <SCORE>
-20.6063

>  <SCORE.INTER>
-17.5563

>  <SCORE.INTER.CONST>
1

>  <SCORE.INTER.POLAR>
-1.65646

>  <SCORE.INTER.ROT>
10

>  <SCORE.INTER.SOLV>
6.86115

>  <SCORE.INTER.VDW>
-18.7364

>  <SCORE.INTER.norm>
-0.763318

>  <SCORE.INTRA>
-3.06093

>  <SCORE.INTRA.DIHEDRAL>
-2.73439

>  <SCORE.INTRA.DIHEDRAL.0>
23.4151

>  <SCORE.INTRA.POLAR>
0

>  <SCORE.INTRA.POLAR.0>
0

>  <SCORE.INTRA.REPUL>
0

>  <SCORE.INTRA.REPUL.0>
0

>  <SCORE.INTRA.SOLV>
0.160796

>  <SCORE.INTRA.SOLV.lig_0>
-17.3568

>  <SCORE.INTRA.VDW>
-1.77414

>  <SCORE.INTRA.VDW.0>
1.0768

>  <SCORE.INTRA.norm>
-0.133084

>  <SCORE.RESTR>
0.0109132

>  <SCORE.RESTR.CAVITY>
0.0109132

>  <SCORE.RESTR.norm>
0.000474486

>  <SCORE.SYSTEM>
0

>  <SCORE.SYSTEM.CONST>
0

>  <SCORE.SYSTEM.DIHEDRAL>
0

>  <SCORE.SYSTEM.SOLV>
0

>  <SCORE.SYSTEM.norm>
0

>  <SCORE.heavy>
23

>  <SCORE.norm>
-0.895927

>  <RMSD>
14.400

$$$$
1uui_lig
 OpenBabel11021811413D
libRbt.so/2013.1/901 2013/11/27
 23 24  0  0  0  0  0  0  0  0999 V2000
  -21.0537   -8.0376    9.4671 C   0  0  0  0  0  0  0  0  0  0  0  0
  -18.2760   -8.3060   10.2816 O   0  0  0  0  0  0  0  0  0  0  0  0
  -19.3810   -7.7766    4.7136 O   0  0  0  0  0  0  0  0  0  0  0  0
  -17.9070   -7.0366   10.8352 C   0  0  0  0  0  0  0  0  0  0  0  0
  -19.3016   -6.3995    4.3377 C   0  0  0  0  0  0  0  0  0  0  0  0
  -21.9816   -6.8894    9.2022 N   0  0  0  0  0  0  0  0  0  0  0  0
  -17.5545   -7.2190   12.3123 C   0  0  0  0  0  0  0  0  0  0  0  0
  -21.3416   -5.5893    9.5413 C   0  0  0  0  0  0  0  0  0  0  0  0
  -23.2435   -7.0371    9.9745 C   0  0  0  0  0  0  0  0  0  0  0  0
  -16.2961   -8.0822   12.4477 C   0  0  0  0  0  0  0  0  0  0  0  0
  -20.9569   -5.5082   11.0284 C   0  0  0  0  0  0  0  0  0  0  0  0
  -22.9787   -7.0915   11.4888 C   0  0  0  0  0  0  0  0  0  0  0  0
  -16.6061   -9.4732   12.0486 N   0  0  0  0  0  0  0  0  0  0  0  0
  -21.6183   -6.5774   11.8401 N   0  0  0  0  0  0  0  0  0  0  0  0
  -21.0655   -6.9215   13.0877 C   0  0  0  0  0  0  0  0  0  0  0  0
  -21.4195   -8.0812   13.7111 N   0  0  0  0  0  0  0  0  0  0  0  0
  -20.2692   -6.0436   13.7621 N   0  0  0  0  0  0  0  0  0  0  0  0
  -18.5554   -8.1692    8.8854 C   0  0  0  0  0  0  0  0  0  0  0  0
  -19.8986   -8.0357    8.4391 C   0  0  0  0  0  0  0  0  0  0  0  0
  -20.1719   -7.9044    7.0492 C   0  0  0  0  0  0  0  0  0  0  0  0
  -19.1042   -7.9068    6.1109 C   0  0  0  0  0  0  0  0  0  0  0  0
  -17.7639   -8.0389    6.5598 C   0  0  0  0  0  0  0  0  0  0  0  0
  -17.4900   -8.1711    7.9466 C   0  0  0  0  0  0  0  0  0  0  0  0
  2  4  1  0  0  0  0
  3  5  1  0  0  0  0
  4  7  1  0  0  0  0
  6  1  1  0  0  0  0
  7 10  1  0  0  0  0
  8  6  1  0  0  0  0
  8 11  1  0  0  0  0
  9  6  1  0  0  0  0
 10 13  1  0  0  0  0
 11 14  1  0  0  0  0
 12  9  1  0  0  0  0
 14 12  1  0  0  0  0
 14 15  1  0  0  0  0
 15 16  1  0  0  0  0
 15 17  1  0  0  0  0
 18  2  1  0  0  0  0
 18 23  2  0  0  0  0
 19  1  1  0  0  0  0
 19 18  1  0  0  0  0
 20 19  2  0  0  0  0
 21  3  1  0  0  0  0
 21 20  1  0  0  0  0
 22 21  2  0  0  0  0
 22 23  1  0  0  0  0
M  END
>  <CHROM.1>
-177.55886298,65.72850431,-70.26626780,-69.46807136,167.89878875,-164.06802868
-65.87148805,-135.83550031,-97.78001131,131.58961186,93.29920351,-19.74652094
-7.40962622,9.85809153,1.39514234,0.31106835,-1.57582717

>  <Name>
1uui_lig

>  <RI>
0

>  <Rbt.Current_Directory>
/home/itssahil/PROJECTS/Mol_Feturizer/New_Systems/rnas/1uui

>  <Rbt.Executable>
rbdock ($Id: //depot/dev/client3/rdock/2013.1/src/exe/rbdock.cxx#4 $)

>  <Rbt.Library>
libRbt.so (2013.1, Build901 2013/11/27)

>  <Rbt.Parameter_File>
/export/apps/rDock/src/rDock_2013.1_src/data/scripts/dock_solv.prm

>  <Rbt.Receptor>
prm/blind_docking_40.prm

>  <SCORE>
-26.0318

>  <SCORE.INTER>
-16.6728

>  <SCORE.INTER.CONST>
1

>  <SCORE.INTER.POLAR>
-1.73368

>  <SCORE.INTER.ROT>
10

>  <SCORE.INTER.SOLV>
5.88862

>  <SCORE.INTER.VDW>
-17.5658

>  <SCORE.INTER.norm>
-0.724903

>  <SCORE.INTRA>
-9.35907

>  <SCORE.INTRA.DIHEDRAL>
-8.36231

>  <SCORE.INTRA.DIHEDRAL.0>
23.4151

>  <SCORE.INTRA.POLAR>
-0.718514

>  <SCORE.INTRA.POLAR.0>
0

>  <SCORE.INTRA.REPUL>
0

>  <SCORE.INTRA.REPUL.0>
0

>  <SCORE.INTRA.SOLV>
1.32676

>  <SCORE.INTRA.SOLV.lig_0>
-17.3568

>  <SCORE.INTRA.VDW>
-3.39834

>  <SCORE.INTRA.VDW.0>
1.0768

>  <SCORE.INTRA.norm>
-0.406916

>  <SCORE.RESTR>
0

>  <SCORE.RESTR.CAVITY>
0

>  <SCORE.RESTR.norm>
0

>  <SCORE.SYSTEM>
0

>  <SCORE.SYSTEM.CONST>
0

>  <SCORE.SYSTEM.DIHEDRAL>
0

>  <SCORE.SYSTEM.SOLV>
0

>  <SCORE.SYSTEM.norm>
0

>  <SCORE.heavy>
23

>  <SCORE.norm>
-1.13182

>  <RMSD>
14.403

$$$$
1uui_lig
 OpenBabel11021811413D
libRbt.so/2013.1/901 2013/11/27
 23 24  0  0  0  0  0  0  0  0999 V2000
  -19.2596   -7.2588    9.1308 C   0  0  0  0  0  0  0  0  0  0  0  0
  -17.4749   -8.5140    7.2097 O   0  0  0  0  0  0  0  0  0  0  0  0
  -15.7578   -8.2085   12.6376 O   0  0  0  0  0  0  0  0  0  0  0  0
  -18.1009   -9.7787    6.9595 C   0  0  0  0  0  0  0  0  0  0  0  0
  -15.9739   -9.4671   13.2805 C   0  0  0  0  0  0  0  0  0  0  0  0
  -19.1390   -5.7910    8.8470 N   0  0  0  0  0  0  0  0  0  0  0  0
  -19.0002   -9.6564    5.7285 C   0  0  0  0  0  0  0  0  0  0  0  0
  -19.2508   -4.9891   10.0957 C   0  0  0  0  0  0  0  0  0  0  0  0
  -20.1784   -5.3498    7.8798 C   0  0  0  0  0  0  0  0  0  0  0  0
  -18.2250   -9.0105    4.5757 C   0  0  0  0  0  0  0  0  0  0  0  0
  -20.6087   -5.1915   10.7894 C   0  0  0  0  0  0  0  0  0  0  0  0
  -21.5973   -5.6136    8.4123 C   0  0  0  0  0  0  0  0  0  0  0  0
  -19.1770   -8.5171    3.5555 N   0  0  0  0  0  0  0  0  0  0  0  0
  -21.6082   -5.8481    9.8898 N   0  0  0  0  0  0  0  0  0  0  0  0
  -22.7208   -6.4891   10.4658 C   0  0  0  0  0  0  0  0  0  0  0  0
  -23.8687   -6.6685    9.7522 N   0  0  0  0  0  0  0  0  0  0  0  0
  -22.7241   -6.8239   11.7877 N   0  0  0  0  0  0  0  0  0  0  0  0
  -17.0479   -8.4396    8.5729 C   0  0  0  0  0  0  0  0  0  0  0  0
  -17.8863   -7.8341    9.5483 C   0  0  0  0  0  0  0  0  0  0  0  0
  -17.4554   -7.7584   10.9020 C   0  0  0  0  0  0  0  0  0  0  0  0
  -16.1902   -8.2871   11.2764 C   0  0  0  0  0  0  0  0  0  0  0  0
  -15.3558   -8.8923   10.3003 C   0  0  0  0  0  0  0  0  0  0  0  0
  -15.7843   -8.9674    8.9488 C   0  0  0  0  0  0  0  0  0  0  0  0
  2  4  1  0  0  0  0
  3  5  1  0  0  0  0
  4  7  1  0  0  0  0
  6  1  1  0  0  0  0
  7 10  1  0  0  0  0
  8  6  1  0  0  0  0
  8 11  1  0  0  0  0
  9  6  1  0  0  0  0
 10 13  1  0  0  0  0
 11 14  1  0  0  0  0
 12  9  1  0  0  0  0
 14 12  1  0  0  0  0
 14 15  1  0  0  0  0
 15 16  1  0  0  0  0
 15 17  1  0  0  0  0
 18  2  1  0  0  0  0
 18 23  2  0  0  0  0
 19  1  1  0  0  0  0
 19 18  1  0  0  0  0
 20 19  2  0  0  0  0
 21  3  1  0  0  0  0
 21 20  1  0  0  0  0
 22 21  2  0  0  0  0
 22 23  1  0  0  0  0
M  END
>  <CHROM.1>
158.56524396,49.78347228,-84.49311750,-162.65598584,28.41621650,156.05965947
-148.01203481,-86.42900620,-94.70262132,-94.83714960,100.20322780,-18.95629500
-7.52869908,9.11697818,-2.97905954,0.44865929,-1.78096765

>  <Name>
1uui_lig

>  <RI>
0

>  <Rbt.Current_Directory>
/home/itssahil/PROJECTS/Mol_Feturizer/New_Systems/rnas/1uui

>  <Rbt.Executable>
rbdock ($Id: //depot/dev/client3/rdock/2013.1/src/exe/rbdock.cxx#4 $)

>  <Rbt.Library>
libRbt.so (2013.1, Build901 2013/11/27)

>  <Rbt.Parameter_File>
/export/apps/rDock/src/rDock_2013.1_src/data/scripts/dock_solv.prm

>  <Rbt.Receptor>
prm/blind_docking_80.prm

>  <SCORE>
-28.1922

>  <SCORE.INTER>
-25.5599

>  <SCORE.INTER.CONST>
1

>  <SCORE.INTER.POLAR>
-2.76306

>  <SCORE.INTER.ROT>
10

>  <SCORE.INTER.SOLV>
8.72914

>  <SCORE.INTER.VDW>
-21.0061

>  <SCORE.INTER.norm>
-1.1113

>  <SCORE.INTRA>
-2.97126

>  <SCORE.INTRA.DIHEDRAL>
-2.94461

>  <SCORE.INTRA.DIHEDRAL.0>
23.4151

>  <SCORE.INTRA.POLAR>
0

>  <SCORE.INTRA.POLAR.0>
0

>  <SCORE.INTRA.REPUL>
0

>  <SCORE.INTRA.REPUL.0>
0

>  <SCORE.INTRA.SOLV>
0.0881847

>  <SCORE.INTRA.SOLV.lig_0>
-17.3568

>  <SCORE.INTRA.VDW>
-1.54305

>  <SCORE.INTRA.VDW.0>
1.0768

>  <SCORE.INTRA.norm>
-0.129185

>  <SCORE.RESTR>
0.338921

>  <SCORE.RESTR.CAVITY>
0.338921

>  <SCORE.RESTR.norm>
0.0147357

>  <SCORE.SYSTEM>
0

>  <SCORE.SYSTEM.CONST>
0

>  <SCORE.SYSTEM.DIHEDRAL>
0

>  <SCORE.SYSTEM.SOLV>
0

>  <SCORE.SYSTEM.norm>
0

>  <SCORE.heavy>
23

>  <SCORE.norm>
-1.22575

>  <RMSD>
14.407

$$$$
1uui_lig
 OpenBabel11021811413D
libRbt.so/2013.1/901 2013/11/27
 23 24  0  0  0  0  0  0  0  0999 V2000
  -19.6783   -7.1252    9.1482 C   0  0  0  0  0  0  0  0  0  0  0  0
  -18.3810   -8.7846    7.1445 O   0  0  0  0  0  0  0  0  0  0  0  0
  -15.7301   -8.0784   12.1423 O   0  0  0  0  0  0  0  0  0  0  0  0
  -17.4152   -8.9872    6.1052 C   0  0  0  0  0  0  0  0  0  0  0  0
  -16.2324   -9.0241   13.0897 C   0  0  0  0  0  0  0  0  0  0  0  0
  -20.6989   -7.6181   10.1305 N   0  0  0  0  0  0  0  0  0  0  0  0
  -18.1455   -9.1875    4.7764 C   0  0  0  0  0  0  0  0  0  0  0  0
  -22.0784   -7.4824    9.5891 C   0  0  0  0  0  0  0  0  0  0  0  0
  -20.5967   -6.8809   11.4176 C   0  0  0  0  0  0  0  0  0  0  0  0
  -19.1745  -10.3147    4.9091 C   0  0  0  0  0  0  0  0  0  0  0  0
  -22.4350   -6.0176    9.2843 C   0  0  0  0  0  0  0  0  0  0  0  0
  -20.8163   -5.3706   11.2253 C   0  0  0  0  0  0  0  0  0  0  0  0
  -18.5018  -11.5439    5.3859 N   0  0  0  0  0  0  0  0  0  0  0  0
  -21.4747   -5.0607    9.9181 N   0  0  0  0  0  0  0  0  0  0  0  0
  -21.3846   -3.7523    9.4076 C   0  0  0  0  0  0  0  0  0  0  0  0
  -20.2523   -3.0128    9.5811 N   0  0  0  0  0  0  0  0  0  0  0  0
  -22.4708   -3.1473    8.8476 N   0  0  0  0  0  0  0  0  0  0  0  0
  -17.7196   -8.6091    8.4007 C   0  0  0  0  0  0  0  0  0  0  0  0
  -18.3150   -7.8057    9.4113 C   0  0  0  0  0  0  0  0  0  0  0  0
  -17.6513   -7.6304   10.6574 C   0  0  0  0  0  0  0  0  0  0  0  0
  -16.3969   -8.2572   10.8895 C   0  0  0  0  0  0  0  0  0  0  0  0
  -15.8055   -9.0598    9.8789 C   0  0  0  0  0  0  0  0  0  0  0  0
  -16.4664   -9.2346    8.6345 C   0  0  0  0  0  0  0  0  0  0  0  0
  2  4  1  0  0  0  0
  3  5  1  0  0  0  0
  4  7  1  0  0  0  0
  6  1  1  0  0  0  0
  7 10  1  0  0  0  0
  8  6  1  0  0  0  0
  8 11  1  0  0  0  0
  9  6  1  0  0  0  0
 10 13  1  0  0  0  0
 11 14  1  0  0  0  0
 12  9  1  0  0  0  0
 14 12  1  0  0  0  0
 14 15  1  0  0  0  0
 15 16  1  0  0  0  0
 15 17  1  0  0  0  0
 18  2  1  0  0  0  0
 18 23  2  0  0  0  0
 19  1  1  0  0  0  0
 19 18  1  0  0  0  0
 20 19  2  0  0  0  0
 21  3  1  0  0  0  0
 21 20  1  0  0  0  0
 22 21  2  0  0  0  0
 22 23  1  0  0  0  0
M  END
>  <CHROM.1>
179.38117469,-53.91444794,-155.23941349,-55.46906370,-152.50573739,-155.86254016
-178.66533519,26.77736091,150.23758160,118.91350274,84.60411242,-19.07337522
-7.46770802,9.10353416,2.40494036,-0.67421525,1.06243976

>  <Name>
1uui_lig

>  <RI>
0

>  <Rbt.Current_Directory>
/home/itssahil/PROJECTS/Mol_Feturizer/New_Systems/rnas/1uui

>  <Rbt.Executable>
rbdock ($Id: //depot/dev/client3/rdock/2013.1/src/exe/rbdock.cxx#4 $)

>  <Rbt.Library>
libRbt.so (2013.1, Build901 2013/11/27)

>  <Rbt.Parameter_File>
/export/apps/rDock/src/rDock_2013.1_src/data/scripts/dock_solv.prm

>  <Rbt.Receptor>
prm/blind_docking_80.prm

>  <SCORE>
-22.8396

>  <SCORE.INTER>
-19.306

>  <SCORE.INTER.CONST>
1

>  <SCORE.INTER.POLAR>
-1.76286

>  <SCORE.INTER.ROT>
10

>  <SCORE.INTER.SOLV>
6.5848

>  <SCORE.INTER.VDW>
-19.4561

>  <SCORE.INTER.norm>
-0.83939

>  <SCORE.INTRA>
-3.53361

>  <SCORE.INTRA.DIHEDRAL>
-10.045

>  <SCORE.INTRA.DIHEDRAL.0>
23.4151

>  <SCORE.INTRA.POLAR>
0

>  <SCORE.INTRA.POLAR.0>
0

>  <SCORE.INTRA.REPUL>
0

>  <SCORE.INTRA.REPUL.0>
0

>  <SCORE.INTRA.SOLV>
0.381292

>  <SCORE.INTRA.SOLV.lig_0>
-17.3568

>  <SCORE.INTRA.VDW>
1.29823

>  <SCORE.INTRA.VDW.0>
1.0768

>  <SCORE.INTRA.norm>
-0.153635

>  <SCORE.RESTR>
0

>  <SCORE.RESTR.CAVITY>
0

>  <SCORE.RESTR.norm>
0

>  <SCORE.SYSTEM>
0

>  <SCORE.SYSTEM.CONST>
0

>  <SCORE.SYSTEM.DIHEDRAL>
0

>  <SCORE.SYSTEM.SOLV>
0

>  <SCORE.SYSTEM.norm>
0

>  <SCORE.heavy>
23

>  <SCORE.norm>
-0.993025

>  <RMSD>
14.413

$$$$
1uui_lig
 OpenBabel11021811413D
libRbt.so/2013.1/901 2013/11/27
 23 24  0  0  0  0  0  0  0  0999 V2000
  -19.2933   -6.5416    9.7638 C   0  0  0  0  0  0  0  0  0  0  0  0
  -17.7192   -7.0608    7.3755 O   0  0  0  0  0  0  0  0  0  0  0  0
  -16.0340   -9.4794   12.2554 O   0  0  0  0  0  0  0  0  0  0  0  0
  -18.4554   -8.0029    6.5853 C   0  0  0  0  0  0  0  0  0  0  0  0
  -15.7163   -8.4601   13.2064 C   0  0  0  0  0  0  0  0  0  0  0  0
  -19.1739   -5.4573   10.7931 N   0  0  0  0  0  0  0  0  0  0  0  0
  -17.4843   -8.7638    5.6813 C   0  0  0  0  0  0  0  0  0  0  0  0
  -19.9870   -5.7674   12.0003 C   0  0  0  0  0  0  0  0  0  0  0  0
  -19.5962   -4.1458   10.2344 C   0  0  0  0  0  0  0  0  0  0  0  0
  -18.2641   -9.6264    4.6838 C   0  0  0  0  0  0  0  0  0  0  0  0
  -21.4836   -5.8942   11.6686 C   0  0  0  0  0  0  0  0  0  0  0  0
  -21.0557   -4.1791    9.7498 C   0  0  0  0  0  0  0  0  0  0  0  0
  -18.5364  -10.9516    5.2841 N   0  0  0  0  0  0  0  0  0  0  0  0
  -21.8097   -5.3401   10.3172 N   0  0  0  0  0  0  0  0  0  0  0  0
  -22.9977   -5.7508    9.6844 C   0  0  0  0  0  0  0  0  0  0  0  0
  -23.2671   -7.0744    9.4988 N   0  0  0  0  0  0  0  0  0  0  0  0
  -23.8400   -4.8363    9.1242 N   0  0  0  0  0  0  0  0  0  0  0  0
  -17.3005   -7.6696    8.6003 C   0  0  0  0  0  0  0  0  0  0  0  0
  -18.0382   -7.4444    9.7945 C   0  0  0  0  0  0  0  0  0  0  0  0
  -17.6154   -8.0484   11.0112 C   0  0  0  0  0  0  0  0  0  0  0  0
  -16.4587   -8.8743   11.0308 C   0  0  0  0  0  0  0  0  0  0  0  0
  -15.7249   -9.0984    9.8364 C   0  0  0  0  0  0  0  0  0  0  0  0
  -16.1453   -8.4952    8.6219 C   0  0  0  0  0  0  0  0  0  0  0  0
  2  4  1  0  0  0  0
  3  5  1  0  0  0  0
  4  7  1  0  0  0  0
  6  1  1  0  0  0  0
  7 10  1  0  0  0  0
  8  6  1  0  0  0  0
  8 11  1  0  0  0  0
  9  6  1  0  0  0  0
 10 13  1  0  0  0  0
 11 14  1  0  0  0  0
 12  9  1  0  0  0  0
 14 12  1  0  0  0  0
 14 15  1  0  0  0  0
 15 16  1  0  0  0  0
 15 17  1  0  0  0  0
 18  2  1  0  0  0  0
 18 23  2  0  0  0  0
 19  1  1  0  0  0  0
 19 18  1  0  0  0  0
 20 19  2  0  0  0  0
 21  3  1  0  0  0  0
 21 20  1  0  0  0  0
 22 21  2  0  0  0  0
 22 23  1  0  0  0  0
M  END
>  <CHROM.1>
-89.77755340,-171.69797667,-101.94082942,-88.36961295,61.13545133,-54.26167921
154.53039578,-52.18974540,-99.15654778,-125.98853232,-61.40472940,-19.01594968
-7.27045062,9.39597905,-2.64178867,0.51878913,-1.94154574

>  <Name>
1uui_lig

>  <RI>
0

>  <Rbt.Current_Directory>
/home/itssahil/PROJECTS/Mol_Feturizer/New_Systems/rnas/1uui

>  <Rbt.Executable>
rbdock ($Id: //depot/dev/client3/rdock/2013.1/src/exe/rbdock.cxx#4 $)

>  <Rbt.Library>
libRbt.so (2013.1, Build901 2013/11/27)

>  <Rbt.Parameter_File>
/export/apps/rDock/src/rDock_2013.1_src/data/scripts/dock_solv.prm

>  <Rbt.Receptor>
prm/blind_docking_80.prm

>  <SCORE>
-27.2021

>  <SCORE.INTER>
-24.7831

>  <SCORE.INTER.CONST>
1

>  <SCORE.INTER.POLAR>
-1.81862

>  <SCORE.INTER.ROT>
10

>  <SCORE.INTER.SOLV>
10.56

>  <SCORE.INTER.VDW>
-24.2467

>  <SCORE.INTER.norm>
-1.07753

>  <SCORE.INTRA>
-2.73265

>  <SCORE.INTRA.DIHEDRAL>
-1.38682

>  <SCORE.INTRA.DIHEDRAL.0>
23.4151

>  <SCORE.INTRA.POLAR>
0

>  <SCORE.INTRA.POLAR.0>
0

>  <SCORE.INTRA.REPUL>
0

>  <SCORE.INTRA.REPUL.0>
0

>  <SCORE.INTRA.SOLV>
-0.00418872

>  <SCORE.INTRA.SOLV.lig_0>
-17.3568

>  <SCORE.INTRA.VDW>
-2.03715

>  <SCORE.INTRA.VDW.0>
1.0768

>  <SCORE.INTRA.norm>
-0.118811

>  <SCORE.RESTR>
0.313669

>  <SCORE.RESTR.CAVITY>
0.313669

>  <SCORE.RESTR.norm>
0.0136378

>  <SCORE.SYSTEM>
0

>  <SCORE.SYSTEM.CONST>
0

>  <SCORE.SYSTEM.DIHEDRAL>
0

>  <SCORE.SYSTEM.SOLV>
0

>  <SCORE.SYSTEM.norm>
0

>  <SCORE.heavy>
23

>  <SCORE.norm>
-1.1827

>  <RMSD>
14.413

$$$$
1uui_lig
 OpenBabel11021811413D
libRbt.so/2013.1/901 2013/11/27
 23 24  0  0  0  0  0  0  0  0999 V2000
  -19.6036   -7.1211    8.9131 C   0  0  0  0  0  0  0  0  0  0  0  0
  -17.8134   -8.1486    6.8659 O   0  0  0  0  0  0  0  0  0  0  0  0
  -15.9554   -8.1104   12.2558 O   0  0  0  0  0  0  0  0  0  0  0  0
  -18.0805   -9.4923    6.4452 C   0  0  0  0  0  0  0  0  0  0  0  0
  -16.3952   -9.2958   12.9232 C   0  0  0  0  0  0  0  0  0  0  0  0
  -19.6725   -5.6411    9.1461 N   0  0  0  0  0  0  0  0  0  0  0  0
  -18.1008   -9.5428    4.9168 C   0  0  0  0  0  0  0  0  0  0  0  0
  -19.4588   -5.3104   10.5813 C   0  0  0  0  0  0  0  0  0  0  0  0
  -20.9811   -5.0936    8.7007 C   0  0  0  0  0  0  0  0  0  0  0  0
  -19.0327   -8.4570    4.3693 C   0  0  0  0  0  0  0  0  0  0  0  0
  -20.5297   -5.9467   11.4837 C   0  0  0  0  0  0  0  0  0  0  0  0
  -22.1542   -5.7457    9.4521 C   0  0  0  0  0  0  0  0  0  0  0  0
  -18.3753   -7.1363    4.4878 N   0  0  0  0  0  0  0  0  0  0  0  0
  -21.7063   -6.4383   10.7004 N   0  0  0  0  0  0  0  0  0  0  0  0
  -22.5496   -7.4054   11.2784 C   0  0  0  0  0  0  0  0  0  0  0  0
  -22.8810   -8.5385   10.5963 N   0  0  0  0  0  0  0  0  0  0  0  0
  -23.1608   -7.1705   12.4746 N   0  0  0  0  0  0  0  0  0  0  0  0
  -17.3508   -8.1416    8.2195 C   0  0  0  0  0  0  0  0  0  0  0  0
  -18.1905   -7.6479    9.2550 C   0  0  0  0  0  0  0  0  0  0  0  0
  -17.7245   -7.6388   10.5991 C   0  0  0  0  0  0  0  0  0  0  0  0
  -16.4230   -8.1221   10.9040 C   0  0  0  0  0  0  0  0  0  0  0  0
  -15.5873   -8.6156    9.8679 C   0  0  0  0  0  0  0  0  0  0  0  0
  -16.0510   -8.6242    8.5260 C   0  0  0  0  0  0  0  0  0  0  0  0
  2  4  1  0  0  0  0
  3  5  1  0  0  0  0
  4  7  1  0  0  0  0
  6  1  1  0  0  0  0
  7 10  1  0  0  0  0
  8  6  1  0  0  0  0
  8 11  1  0  0  0  0
  9  6  1  0  0  0  0
 10 13  1  0  0  0  0
 11 14  1  0  0  0  0
 12  9  1  0  0  0  0
 14 12  1  0  0  0  0
 14 15  1  0  0  0  0
 15 16  1  0  0  0  0
 15 17  1  0  0  0  0
 18  2  1  0  0  0  0
 18 23  2  0  0  0  0
 19  1  1  0  0  0  0
 19 18  1  0  0  0  0
 20 19  2  0  0  0  0
 21  3  1  0  0  0  0
 21 20  1  0  0  0  0
 22 21  2  0  0  0  0
 22 23  1  0  0  0  0
M  END
>  <CHROM.1>
-160.73264031,-51.07894887,-63.28764519,74.98720083,76.32275566,-129.55236089
-35.24151133,-148.84004642,-108.48869487,-112.51987621,85.34440695,-19.08748296
-7.52867392,9.24361684,2.28549084,-0.33600371,1.51334784

>  <Name>
1uui_lig

>  <RI>
0

>  <Rbt.Current_Directory>
/home/itssahil/PROJECTS/Mol_Feturizer/New_Systems/rnas/1uui

>  <Rbt.Executable>
rbdock ($Id: //depot/dev/client3/rdock/2013.1/src/exe/rbdock.cxx#4 $)

>  <Rbt.Library>
libRbt.so (2013.1, Build901 2013/11/27)

>  <Rbt.Parameter_File>
/export/apps/rDock/src/rDock_2013.1_src/data/scripts/dock_solv.prm

>  <Rbt.Receptor>
prm/blind_docking_100.prm

>  <SCORE>
-30.4508

>  <SCORE.INTER>
-24.0108

>  <SCORE.INTER.CONST>
1

>  <SCORE.INTER.POLAR>
-2.55584

>  <SCORE.INTER.ROT>
10

>  <SCORE.INTER.SOLV>
8.03012

>  <SCORE.INTER.VDW>
-20.4311

>  <SCORE.INTER.norm>
-1.04395

>  <SCORE.INTRA>
-6.57982

>  <SCORE.INTRA.DIHEDRAL>
-6.53044

>  <SCORE.INTRA.DIHEDRAL.0>
23.4151

>  <SCORE.INTRA.POLAR>
-0.685041

>  <SCORE.INTRA.POLAR.0>
0

>  <SCORE.INTRA.REPUL>
0

>  <SCORE.INTRA.REPUL.0>
0

>  <SCORE.INTRA.SOLV>
0.610452

>  <SCORE.INTRA.SOLV.lig_0>
-17.3568

>  <SCORE.INTRA.VDW>
-1.29069

>  <SCORE.INTRA.VDW.0>
1.0768

>  <SCORE.INTRA.norm>
-0.286079

>  <SCORE.RESTR>
0.139732

>  <SCORE.RESTR.CAVITY>
0.139732

>  <SCORE.RESTR.norm>
0.00607531

>  <SCORE.SYSTEM>
0

>  <SCORE.SYSTEM.CONST>
0

>  <SCORE.SYSTEM.DIHEDRAL>
0

>  <SCORE.SYSTEM.SOLV>
0

>  <SCORE.SYSTEM.norm>
0

>  <SCORE.heavy>
23

>  <SCORE.norm>
-1.32395

>  <RMSD>
14.415

$$$$
1uui_lig
 OpenBabel11021811413D
libRbt.so/2013.1/901 2013/11/27
 23 24  0  0  0  0  0  0  0  0999 V2000
  -19.9818   -7.3687    9.3719 C   0  0  0  0  0  0  0  0  0  0  0  0
  -18.3537   -7.6043    6.9750 O   0  0  0  0  0  0  0  0  0  0  0  0
  -16.1076   -9.3754   11.9067 O   0  0  0  0  0  0  0  0  0  0  0  0
  -17.6672   -8.2165    5.8759 C   0  0  0  0  0  0  0  0  0  0  0  0
  -15.8601   -8.2468   12.7487 C   0  0  0  0  0  0  0  0  0  0  0  0
  -20.6728   -7.6046   10.6820 N   0  0  0  0  0  0  0  0  0  0  0  0
  -18.2981   -9.5800    5.5896 C   0  0  0  0  0  0  0  0  0  0  0  0
  -22.1520   -7.5421   10.5307 C   0  0  0  0  0  0  0  0  0  0  0  0
  -20.2361   -6.6120   11.6991 C   0  0  0  0  0  0  0  0  0  0  0  0
  -19.7069   -9.3953    5.0167 C   0  0  0  0  0  0  0  0  0  0  0  0
  -22.6211   -6.1658   10.0291 C   0  0  0  0  0  0  0  0  0  0  0  0
  -20.5436   -5.1718   11.2548 C   0  0  0  0  0  0  0  0  0  0  0  0
  -19.6220   -8.7070    3.7092 N   0  0  0  0  0  0  0  0  0  0  0  0
  -21.5496   -5.1279   10.1483 N   0  0  0  0  0  0  0  0  0  0  0  0
  -21.6429   -3.9635    9.3634 C   0  0  0  0  0  0  0  0  0  0  0  0
  -22.3804   -3.9530    8.2167 N   0  0  0  0  0  0  0  0  0  0  0  0
  -20.8926   -2.8635    9.6579 N   0  0  0  0  0  0  0  0  0  0  0  0
  -17.7937   -8.0516    8.2129 C   0  0  0  0  0  0  0  0  0  0  0  0
  -18.5518   -7.9558    9.4118 C   0  0  0  0  0  0  0  0  0  0  0  0
  -17.9890   -8.3978   10.6413 C   0  0  0  0  0  0  0  0  0  0  0  0
  -16.6726   -8.9332   10.6693 C   0  0  0  0  0  0  0  0  0  0  0  0
  -15.9186   -9.0288    9.4703 C   0  0  0  0  0  0  0  0  0  0  0  0
  -16.4788   -8.5870    8.2428 C   0  0  0  0  0  0  0  0  0  0  0  0
  2  4  1  0  0  0  0
  3  5  1  0  0  0  0
  4  7  1  0  0  0  0
  6  1  1  0  0  0  0
  7 10  1  0  0  0  0
  8  6  1  0  0  0  0
  8 11  1  0  0  0  0
  9  6  1  0  0  0  0
 10 13  1  0  0  0  0
 11 14  1  0  0  0  0
 12  9  1  0  0  0  0
 14 12  1  0  0  0  0
 14 15  1  0  0  0  0
 15 16  1  0  0  0  0
 15 17  1  0  0  0  0
 18  2  1  0  0  0  0
 18 23  2  0  0  0  0
 19  1  1  0  0  0  0
 19 18  1  0  0  0  0
 20 19  2  0  0  0  0
 21  3  1  0  0  0  0
 21 20  1  0  0  0  0
 22 21  2  0  0  0  0
 22 23  1  0  0  0  0
M  END
>  <CHROM.1>
85.65586286,69.09743725,-158.29055337,64.10175549,-58.85974000,-22.56374352
-0.52548698,57.44870319,-159.00429570,169.34292310,-69.04085210,-19.25003984
-7.28525052,9.05984476,-2.61211919,0.67307395,-1.83346818

>  <Name>
1uui_lig

>  <RI>
0

>  <Rbt.Current_Directory>
/home/itssahil/PROJECTS/Mol_Feturizer/New_Systems/rnas/1uui

>  <Rbt.Executable>
rbdock ($Id: //depot/dev/client3/rdock/2013.1/src/exe/rbdock.cxx#4 $)

>  <Rbt.Library>
libRbt.so (2013.1, Build901 2013/11/27)

>  <Rbt.Parameter_File>
/export/apps/rDock/src/rDock_2013.1_src/data/scripts/dock_solv.prm

>  <Rbt.Receptor>
prm/blind_docking_40.prm

>  <SCORE>
-21.0771

>  <SCORE.INTER>
-19.796

>  <SCORE.INTER.CONST>
1

>  <SCORE.INTER.POLAR>
-2.11643

>  <SCORE.INTER.ROT>
10

>  <SCORE.INTER.SOLV>
6.10406

>  <SCORE.INTER.VDW>
-18.4439

>  <SCORE.INTER.norm>
-0.860694

>  <SCORE.INTRA>
-1.36277

>  <SCORE.INTRA.DIHEDRAL>
-10.0805

>  <SCORE.INTRA.DIHEDRAL.0>
23.4151

>  <SCORE.INTRA.POLAR>
0

>  <SCORE.INTRA.POLAR.0>
0

>  <SCORE.INTRA.REPUL>
0

>  <SCORE.INTRA.REPUL.0>
0

>  <SCORE.INTRA.SOLV>
0.230326

>  <SCORE.INTRA.SOLV.lig_0>
-17.3568

>  <SCORE.INTRA.VDW>
3.56232

>  <SCORE.INTRA.VDW.0>
1.0768

>  <SCORE.INTRA.norm>
-0.0592509

>  <SCORE.RESTR>
0.0816661

>  <SCORE.RESTR.CAVITY>
0.0816661

>  <SCORE.RESTR.norm>
0.0035507

>  <SCORE.SYSTEM>
0

>  <SCORE.SYSTEM.CONST>
0

>  <SCORE.SYSTEM.DIHEDRAL>
0

>  <SCORE.SYSTEM.SOLV>
0

>  <SCORE.SYSTEM.norm>
0

>  <SCORE.heavy>
23

>  <SCORE.norm>
-0.916394

>  <RMSD>
14.423

$$$$
1uui_lig
 OpenBabel11021811413D
libRbt.so/2013.1/901 2013/11/27
 23 24  0  0  0  0  0  0  0  0999 V2000
  -20.8562   -6.8002    7.2358 C   0  0  0  0  0  0  0  0  0  0  0  0
  -19.0141   -4.9122    8.4580 O   0  0  0  0  0  0  0  0  0  0  0  0
  -23.0185   -7.2538   11.7724 O   0  0  0  0  0  0  0  0  0  0  0  0
  -19.5454   -3.7602    7.7913 C   0  0  0  0  0  0  0  0  0  0  0  0
  -22.3993   -8.0819   12.7598 C   0  0  0  0  0  0  0  0  0  0  0  0
  -20.2162   -8.1465    7.0706 N   0  0  0  0  0  0  0  0  0  0  0  0
  -19.8803   -2.6906    8.8320 C   0  0  0  0  0  0  0  0  0  0  0  0
  -18.7573   -8.0893    7.3585 C   0  0  0  0  0  0  0  0  0  0  0  0
  -20.4300   -8.6711    5.6960 C   0  0  0  0  0  0  0  0  0  0  0  0
  -20.8911   -1.6954    8.2534 C   0  0  0  0  0  0  0  0  0  0  0  0
  -18.0200   -7.1334    6.4054 C   0  0  0  0  0  0  0  0  0  0  0  0
  -19.8372   -7.7319    4.6317 C   0  0  0  0  0  0  0  0  0  0  0  0
  -21.8563   -1.3041    9.3050 N   0  0  0  0  0  0  0  0  0  0  0  0
  -18.8541   -6.7683    5.2177 N   0  0  0  0  0  0  0  0  0  0  0  0
  -18.5309   -5.6058    4.4934 C   0  0  0  0  0  0  0  0  0  0  0  0
  -18.8340   -5.5034    3.1680 N   0  0  0  0  0  0  0  0  0  0  0  0
  -17.7898   -4.6136    5.0642 N   0  0  0  0  0  0  0  0  0  0  0  0
  -20.0172   -5.5039    9.2885 C   0  0  0  0  0  0  0  0  0  0  0  0
  -20.9410   -6.4323    8.7354 C   0  0  0  0  0  0  0  0  0  0  0  0
  -21.9398   -7.0148    9.5642 C   0  0  0  0  0  0  0  0  0  0  0  0
  -22.0124   -6.6686   10.9409 C   0  0  0  0  0  0  0  0  0  0  0  0
  -21.0877   -5.7422   11.4906 C   0  0  0  0  0  0  0  0  0  0  0  0
  -20.0912   -5.1594   10.6641 C   0  0  0  0  0  0  0  0  0  0  0  0
  2  4  1  0  0  0  0
  3  5  1  0  0  0  0
  4  7  1  0  0  0  0
  6  1  1  0  0  0  0
  7 10  1  0  0  0  0
  8  6  1  0  0  0  0
  8 11  1  0  0  0  0
  9  6  1  0  0  0  0
 10 13  1  0  0  0  0
 11 14  1  0  0  0  0
 12  9  1  0  0  0  0
 14 12  1  0  0  0  0
 14 15  1  0  0  0  0
 15 16  1  0  0  0  0
 15 17  1  0  0  0  0
 18  2  1  0  0  0  0
 18 23  2  0  0  0  0
 19  1  1  0  0  0  0
 19 18  1  0  0  0  0
 20 19  2  0  0  0  0
 21  3  1  0  0  0  0
 21 20  1  0  0  0  0
 22 21  2  0  0  0  0
 22 23  1  0  0  0  0
M  END
>  <CHROM.1>
65.28122047,-159.29197941,-72.19218802,141.89133329,68.82039297,152.39417885
110.63990346,-107.22974911,85.18653461,102.82533490,114.52642631,-20.20365362
-5.83836270,7.96948077,0.19520041,-1.11260756,-2.98988076

>  <Name>
1uui_lig

>  <RI>
0

>  <Rbt.Current_Directory>
/home/itssahil/PROJECTS/Mol_Feturizer/New_Systems/rnas/1uui

>  <Rbt.Executable>
rbdock ($Id: //depot/dev/client3/rdock/2013.1/src/exe/rbdock.cxx#4 $)

>  <Rbt.Library>
libRbt.so (2013.1, Build901 2013/11/27)

>  <Rbt.Parameter_File>
/export/apps/rDock/src/rDock_2013.1_src/data/scripts/dock_solv.prm

>  <Rbt.Receptor>
prm/blind_docking_40.prm

>  <SCORE>
-28.6198

>  <SCORE.INTER>
-24.7036

>  <SCORE.INTER.CONST>
1

>  <SCORE.INTER.POLAR>
-3.63263

>  <SCORE.INTER.ROT>
10

>  <SCORE.INTER.SOLV>
5.38604

>  <SCORE.INTER.VDW>
-16.4223

>  <SCORE.INTER.norm>
-1.07407

>  <SCORE.INTRA>
-3.91616

>  <SCORE.INTRA.DIHEDRAL>
-4.34437

>  <SCORE.INTRA.DIHEDRAL.0>
23.4151

>  <SCORE.INTRA.POLAR>
0

>  <SCORE.INTRA.POLAR.0>
0

>  <SCORE.INTRA.REPUL>
0

>  <SCORE.INTRA.REPUL.0>
0

>  <SCORE.INTRA.SOLV>
0.768452

>  <SCORE.INTRA.SOLV.lig_0>
-17.3568

>  <SCORE.INTRA.VDW>
-2.1282

>  <SCORE.INTRA.VDW.0>
1.0768

>  <SCORE.INTRA.norm>
-0.170268

>  <SCORE.RESTR>
0

>  <SCORE.RESTR.CAVITY>
0

>  <SCORE.RESTR.norm>
0

>  <SCORE.SYSTEM>
0

>  <SCORE.SYSTEM.CONST>
0

>  <SCORE.SYSTEM.DIHEDRAL>
0

>  <SCORE.SYSTEM.SOLV>
0

>  <SCORE.SYSTEM.norm>
0

>  <SCORE.heavy>
23

>  <SCORE.norm>
-1.24434

>  <RMSD>
14.424

$$$$
1uui_lig
 OpenBabel11021811413D
libRbt.so/2013.1/901 2013/11/27
 23 24  0  0  0  0  0  0  0  0999 V2000
  -19.0425   -6.7611   10.0482 C   0  0  0  0  0  0  0  0  0  0  0  0
  -17.6212   -7.7522    7.7139 O   0  0  0  0  0  0  0  0  0  0  0  0
  -15.3310   -8.7308   12.8423 O   0  0  0  0  0  0  0  0  0  0  0  0
  -18.2272   -8.9480    7.2071 C   0  0  0  0  0  0  0  0  0  0  0  0
  -16.2010   -9.5718   13.6037 C   0  0  0  0  0  0  0  0  0  0  0  0
  -19.0763   -5.6293   11.0318 N   0  0  0  0  0  0  0  0  0  0  0  0
  -18.9118   -8.6359    5.8755 C   0  0  0  0  0  0  0  0  0  0  0  0
  -20.0107   -5.9173   12.1537 C   0  0  0  0  0  0  0  0  0  0  0  0
  -19.4752   -4.3602   10.3678 C   0  0  0  0  0  0  0  0  0  0  0  0
  -17.8587   -8.3774    4.7933 C   0  0  0  0  0  0  0  0  0  0  0  0
  -21.4550   -6.1150   11.6630 C   0  0  0  0  0  0  0  0  0  0  0  0
  -20.8684   -4.4699    9.7249 C   0  0  0  0  0  0  0  0  0  0  0  0
  -17.7108   -6.9194    4.5862 N   0  0  0  0  0  0  0  0  0  0  0  0
  -21.6435   -5.6329   10.2588 N   0  0  0  0  0  0  0  0  0  0  0  0
  -22.7379   -6.1154    9.5172 C   0  0  0  0  0  0  0  0  0  0  0  0
  -22.6968   -7.3479    8.9356 N   0  0  0  0  0  0  0  0  0  0  0  0
  -23.8068   -5.3117    9.2507 N   0  0  0  0  0  0  0  0  0  0  0  0
  -17.0505   -7.9999    9.0019 C   0  0  0  0  0  0  0  0  0  0  0  0
  -17.7089   -7.5338   10.1726 C   0  0  0  0  0  0  0  0  0  0  0  0
  -17.1351   -7.7786   11.4512 C   0  0  0  0  0  0  0  0  0  0  0  0
  -15.9073   -8.4871   11.5560 C   0  0  0  0  0  0  0  0  0  0  0  0
  -15.2530   -8.9523   10.3852 C   0  0  0  0  0  0  0  0  0  0  0  0
  -15.8241   -8.7076    9.1086 C   0  0  0  0  0  0  0  0  0  0  0  0
  2  4  1  0  0  0  0
  3  5  1  0  0  0  0
  4  7  1  0  0  0  0
  6  1  1  0  0  0  0
  7 10  1  0  0  0  0
  8  6  1  0  0  0  0
  8 11  1  0  0  0  0
  9  6  1  0  0  0  0
 10 13  1  0  0  0  0
 11 14  1  0  0  0  0
 12  9  1  0  0  0  0
 14 12  1  0  0  0  0
 14 15  1  0  0  0  0
 15 16  1  0  0  0  0
 15 17  1  0  0  0  0
 18  2  1  0  0  0  0
 18 23  2  0  0  0  0
 19  1  1  0  0  0  0
 19 18  1  0  0  0  0
 20 19  2  0  0  0  0
 21  3  1  0  0  0  0
 21 20  1  0  0  0  0
 22 21  2  0  0  0  0
 22 23  1  0  0  0  0
M  END
>  <CHROM.1>
176.19178780,70.71756124,-107.24764867,-100.67522931,-46.68161334,-79.19275636
127.04784998,-54.44787114,-104.05415731,-140.29861855,63.85894294,-18.82025842
-7.19558573,9.57237743,3.01738831,0.47470363,-1.67972989

>  <Name>
1uui_lig

>  <RI>
0

>  <Rbt.Current_Directory>
/home/itssahil/PROJECTS/Mol_Feturizer/New_Systems/rnas/1uui

>  <Rbt.Executable>
rbdock ($Id: //depot/dev/client3/rdock/2013.1/src/exe/rbdock.cxx#4 $)

>  <Rbt.Library>
libRbt.so (2013.1, Build901 2013/11/27)

>  <Rbt.Parameter_File>
/export/apps/rDock/src/rDock_2013.1_src/data/scripts/dock_solv.prm

>  <Rbt.Receptor>
prm/blind_docking_40.prm

>  <SCORE>
-30.7177

>  <SCORE.INTER>
-27.497

>  <SCORE.INTER.CONST>
1

>  <SCORE.INTER.POLAR>
-2.85511

>  <SCORE.INTER.ROT>
10

>  <SCORE.INTER.SOLV>
10.6525

>  <SCORE.INTER.VDW>
-22.6318

>  <SCORE.INTER.norm>
-1.19552

>  <SCORE.INTRA>
-3.22069

>  <SCORE.INTRA.DIHEDRAL>
-2.37136

>  <SCORE.INTRA.DIHEDRAL.0>
23.4151

>  <SCORE.INTRA.POLAR>
0

>  <SCORE.INTRA.POLAR.0>
0

>  <SCORE.INTRA.REPUL>
0

>  <SCORE.INTRA.REPUL.0>
0

>  <SCORE.INTRA.SOLV>
0.221961

>  <SCORE.INTRA.SOLV.lig_0>
-17.3568

>  <SCORE.INTRA.VDW>
-2.14599

>  <SCORE.INTRA.VDW.0>
1.0768

>  <SCORE.INTRA.norm>
-0.14003

>  <SCORE.RESTR>
0

>  <SCORE.RESTR.CAVITY>
0

>  <SCORE.RESTR.norm>
0

>  <SCORE.SYSTEM>
0

>  <SCORE.SYSTEM.CONST>
0

>  <SCORE.SYSTEM.DIHEDRAL>
0

>  <SCORE.SYSTEM.SOLV>
0

>  <SCORE.SYSTEM.norm>
0

>  <SCORE.heavy>
23

>  <SCORE.norm>
-1.33555

>  <RMSD>
14.431

$$$$
1uui_lig
 OpenBabel11021811413D
libRbt.so/2013.1/901 2013/11/27
 23 24  0  0  0  0  0  0  0  0999 V2000
  -19.1067   -6.9567    8.8893 C   0  0  0  0  0  0  0  0  0  0  0  0
  -17.1841   -8.2566    7.1386 O   0  0  0  0  0  0  0  0  0  0  0  0
  -16.0684   -8.1763   12.7290 O   0  0  0  0  0  0  0  0  0  0  0  0
  -17.6615   -9.5504    6.7486 C   0  0  0  0  0  0  0  0  0  0  0  0
  -15.9947   -9.5163   13.2221 C   0  0  0  0  0  0  0  0  0  0  0  0
  -20.0751   -8.0121    8.4445 N   0  0  0  0  0  0  0  0  0  0  0  0
  -18.0972   -9.5016    5.2833 C   0  0  0  0  0  0  0  0  0  0  0  0
  -20.7655   -7.6154    7.1873 C   0  0  0  0  0  0  0  0  0  0  0  0
  -21.0857   -8.2848    9.5003 C   0  0  0  0  0  0  0  0  0  0  0  0
  -18.7821  -10.8163    4.8966 C   0  0  0  0  0  0  0  0  0  0  0  0
  -21.5775   -6.3206    7.3611 C   0  0  0  0  0  0  0  0  0  0  0  0
  -21.8911   -7.0229    9.8540 C   0  0  0  0  0  0  0  0  0  0  0  0
  -20.0753  -10.9272    5.6078 N   0  0  0  0  0  0  0  0  0  0  0  0
  -21.7700   -5.9659    8.8022 N   0  0  0  0  0  0  0  0  0  0  0  0
  -22.0925   -4.6375    9.1365 C   0  0  0  0  0  0  0  0  0  0  0  0
  -23.3359   -4.3160    9.5943 N   0  0  0  0  0  0  0  0  0  0  0  0
  -21.2160   -3.6238    8.8838 N   0  0  0  0  0  0  0  0  0  0  0  0
  -16.9082   -8.2386    8.5420 C   0  0  0  0  0  0  0  0  0  0  0  0
  -17.8188   -7.6139    9.4374 C   0  0  0  0  0  0  0  0  0  0  0  0
  -17.5379   -7.5945   10.8319 C   0  0  0  0  0  0  0  0  0  0  0  0
  -16.3501   -8.1984   11.3268 C   0  0  0  0  0  0  0  0  0  0  0  0
  -15.4434   -8.8225   10.4303 C   0  0  0  0  0  0  0  0  0  0  0  0
  -15.7221   -8.8415    9.0383 C   0  0  0  0  0  0  0  0  0  0  0  0
  2  4  1  0  0  0  0
  3  5  1  0  0  0  0
  4  7  1  0  0  0  0
  6  1  1  0  0  0  0
  7 10  1  0  0  0  0
  8  6  1  0  0  0  0
  8 11  1  0  0  0  0
  9  6  1  0  0  0  0
 10 13  1  0  0  0  0
 11 14  1  0  0  0  0
 12  9  1  0  0  0  0
 14 12  1  0  0  0  0
 14 15  1  0  0  0  0
 15 16  1  0  0  0  0
 15 17  1  0  0  0  0
 18  2  1  0  0  0  0
 18 23  2  0  0  0  0
 19  1  1  0  0  0  0
 19 18  1  0  0  0  0
 20 19  2  0  0  0  0
 21  3  1  0  0  0  0
 21 20  1  0  0  0  0
 22 21  2  0  0  0  0
 22 23  1  0  0  0  0
M  END
>  <CHROM.1>
173.70981929,-172.52020304,-140.42417368,68.27358217,56.94210230,109.40271794
-141.93894012,35.13302863,-103.02744116,71.88573491,118.89354549,-19.05092136
-7.76750185,8.79351167,-3.06056394,0.57933684,-2.11066496

>  <Name>
1uui_lig

>  <RI>
0

>  <Rbt.Current_Directory>
/home/itssahil/PROJECTS/Mol_Feturizer/New_Systems/rnas/1uui

>  <Rbt.Executable>
rbdock ($Id: //depot/dev/client3/rdock/2013.1/src/exe/rbdock.cxx#4 $)

>  <Rbt.Library>
libRbt.so (2013.1, Build901 2013/11/27)

>  <Rbt.Parameter_File>
/export/apps/rDock/src/rDock_2013.1_src/data/scripts/dock_solv.prm

>  <Rbt.Receptor>
prm/blind_docking_80.prm

>  <SCORE>
-23.6632

>  <SCORE.INTER>
-17.1553

>  <SCORE.INTER.CONST>
1

>  <SCORE.INTER.POLAR>
-1.50938

>  <SCORE.INTER.ROT>
10

>  <SCORE.INTER.SOLV>
5.81498

>  <SCORE.INTER.VDW>
-18.6106

>  <SCORE.INTER.norm>
-0.745881

>  <SCORE.INTRA>
-6.64215

>  <SCORE.INTRA.DIHEDRAL>
-7.56509

>  <SCORE.INTRA.DIHEDRAL.0>
23.4151

>  <SCORE.INTRA.POLAR>
0

>  <SCORE.INTRA.POLAR.0>
0

>  <SCORE.INTRA.REPUL>
0.00303087

>  <SCORE.INTRA.REPUL.0>
0

>  <SCORE.INTRA.SOLV>
0.488949

>  <SCORE.INTRA.SOLV.lig_0>
-17.3568

>  <SCORE.INTRA.VDW>
-3.11923

>  <SCORE.INTRA.VDW.0>
1.0768

>  <SCORE.INTRA.norm>
-0.288789

>  <SCORE.RESTR>
0.134177

>  <SCORE.RESTR.CAVITY>
0.134177

>  <SCORE.RESTR.norm>
0.00583378

>  <SCORE.SYSTEM>
0

>  <SCORE.SYSTEM.CONST>
0

>  <SCORE.SYSTEM.DIHEDRAL>
0

>  <SCORE.SYSTEM.SOLV>
0

>  <SCORE.SYSTEM.norm>
0

>  <SCORE.heavy>
23

>  <SCORE.norm>
-1.02884

>  <RMSD>
14.456

$$$$
1uui_lig
 OpenBabel11021811413D
libRbt.so/2013.1/901 2013/11/27
 23 24  0  0  0  0  0  0  0  0999 V2000
  -19.6794   -7.0637    9.0044 C   0  0  0  0  0  0  0  0  0  0  0  0
  -18.0785   -8.4466    7.0104 O   0  0  0  0  0  0  0  0  0  0  0  0
  -15.9684   -8.0132   12.2890 O   0  0  0  0  0  0  0  0  0  0  0  0
  -18.7098   -9.7210    6.8335 C   0  0  0  0  0  0  0  0  0  0  0  0
  -16.1686   -9.2442   12.9880 C   0  0  0  0  0  0  0  0  0  0  0  0
  -19.6048   -5.5660    9.0354 N   0  0  0  0  0  0  0  0  0  0  0  0
  -19.2572   -9.8141    5.4084 C   0  0  0  0  0  0  0  0  0  0  0  0
  -19.4001   -5.0647   10.4216 C   0  0  0  0  0  0  0  0  0  0  0  0
  -20.8378   -4.9609    8.4664 C   0  0  0  0  0  0  0  0  0  0  0  0
  -18.3797   -8.9957    4.4559 C   0  0  0  0  0  0  0  0  0  0  0  0
  -20.5554   -5.4655   11.3546 C   0  0  0  0  0  0  0  0  0  0  0  0
  -22.0921   -5.3881    9.2477 C   0  0  0  0  0  0  0  0  0  0  0  0
  -16.9532   -9.2532    4.7544 N   0  0  0  0  0  0  0  0  0  0  0  0
  -21.7527   -5.9437   10.5947 N   0  0  0  0  0  0  0  0  0  0  0  0
  -22.7058   -6.7369   11.2602 C   0  0  0  0  0  0  0  0  0  0  0  0
  -23.7458   -7.2961   10.5784 N   0  0  0  0  0  0  0  0  0  0  0  0
  -22.6880   -6.8537   12.6187 N   0  0  0  0  0  0  0  0  0  0  0  0
  -17.5528   -8.3400    8.3365 C   0  0  0  0  0  0  0  0  0  0  0  0
  -18.2992   -7.6719    9.3453 C   0  0  0  0  0  0  0  0  0  0  0  0
  -17.7703   -7.5645   10.6616 C   0  0  0  0  0  0  0  0  0  0  0  0
  -16.4994   -8.1238   10.9654 C   0  0  0  0  0  0  0  0  0  0  0  0
  -15.7571   -8.7914    9.9562 C   0  0  0  0  0  0  0  0  0  0  0  0
  -16.2834   -8.8984    8.6419 C   0  0  0  0  0  0  0  0  0  0  0  0
  2  4  1  0  0  0  0
  3  5  1  0  0  0  0
  4  7  1  0  0  0  0
  6  1  1  0  0  0  0
  7 10  1  0  0  0  0
  8  6  1  0  0  0  0
  8 11  1  0  0  0  0
  9  6  1  0  0  0  0
 10 13  1  0  0  0  0
 11 14  1  0  0  0  0
 12  9  1  0  0  0  0
 14 12  1  0  0  0  0
 14 15  1  0  0  0  0
 15 16  1  0  0  0  0
 15 17  1  0  0  0  0
 18  2  1  0  0  0  0
 18 23  2  0  0  0  0
 19  1  1  0  0  0  0
 19 18  1  0  0  0  0
 20 19  2  0  0  0  0
 21  3  1  0  0  0  0
 21 20  1  0  0  0  0
 22 21  2  0  0  0  0
 22 23  1  0  0  0  0
M  END
>  <CHROM.1>
-179.72799957,30.88156767,-68.53307067,44.07686622,161.84272069,-173.90530547
79.24670737,-63.48577250,-97.26792045,-110.61512980,100.69018667,-19.11298192
-7.53522327,9.30061638,2.38565061,-0.39757971,1.34610584

>  <Name>
1uui_lig

>  <RI>
0

>  <Rbt.Current_Directory>
/home/itssahil/PROJECTS/Mol_Feturizer/New_Systems/rnas/1uui

>  <Rbt.Executable>
rbdock ($Id: //depot/dev/client3/rdock/2013.1/src/exe/rbdock.cxx#4 $)

>  <Rbt.Library>
libRbt.so (2013.1, Build901 2013/11/27)

>  <Rbt.Parameter_File>
/export/apps/rDock/src/rDock_2013.1_src/data/scripts/dock_solv.prm

>  <Rbt.Receptor>
prm/blind_docking_100.prm

>  <SCORE>
-38.6386

>  <SCORE.INTER>
-36.1485

>  <SCORE.INTER.CONST>
1

>  <SCORE.INTER.POLAR>
-3.96465

>  <SCORE.INTER.ROT>
10

>  <SCORE.INTER.SOLV>
8.95992

>  <SCORE.INTER.VDW>
-24.1368

>  <SCORE.INTER.norm>
-1.57168

>  <SCORE.INTRA>
-2.5698

>  <SCORE.INTRA.DIHEDRAL>
-5.15798

>  <SCORE.INTRA.DIHEDRAL.0>
23.4151

>  <SCORE.INTRA.POLAR>
-0.308576

>  <SCORE.INTRA.POLAR.0>
0

>  <SCORE.INTRA.REPUL>
0

>  <SCORE.INTRA.REPUL.0>
0

>  <SCORE.INTRA.SOLV>
0.692033

>  <SCORE.INTRA.SOLV.lig_0>
-17.3568

>  <SCORE.INTRA.VDW>
0.712339

>  <SCORE.INTRA.VDW.0>
1.0768

>  <SCORE.INTRA.norm>
-0.11173

>  <SCORE.RESTR>
0.0797425

>  <SCORE.RESTR.CAVITY>
0.0797425

>  <SCORE.RESTR.norm>
0.00346706

>  <SCORE.SYSTEM>
0

>  <SCORE.SYSTEM.CONST>
0

>  <SCORE.SYSTEM.DIHEDRAL>
0

>  <SCORE.SYSTEM.SOLV>
0

>  <SCORE.SYSTEM.norm>
0

>  <SCORE.heavy>
23

>  <SCORE.norm>
-1.67994

>  <RMSD>
14.461

$$$$
1uui_lig
 OpenBabel11021811413D
libRbt.so/2013.1/901 2013/11/27
 23 24  0  0  0  0  0  0  0  0999 V2000
  -19.9396   -6.7073    8.1757 C   0  0  0  0  0  0  0  0  0  0  0  0
  -20.8218   -9.2592    7.0982 O   0  0  0  0  0  0  0  0  0  0  0  0
  -15.3739   -8.7880    8.7114 O   0  0  0  0  0  0  0  0  0  0  0  0
  -20.9806   -8.7583    5.7649 C   0  0  0  0  0  0  0  0  0  0  0  0
  -15.2867   -8.8684   10.1361 C   0  0  0  0  0  0  0  0  0  0  0  0
  -19.4392   -5.7646    9.2294 N   0  0  0  0  0  0  0  0  0  0  0  0
  -20.1396   -9.6058    4.8090 C   0  0  0  0  0  0  0  0  0  0  0  0
  -19.3686   -6.4298   10.5588 C   0  0  0  0  0  0  0  0  0  0  0  0
  -20.3084   -4.5620    9.3224 C   0  0  0  0  0  0  0  0  0  0  0  0
  -18.7681   -8.9555    4.6012 C   0  0  0  0  0  0  0  0  0  0  0  0
  -20.7478   -6.9217   11.0297 C   0  0  0  0  0  0  0  0  0  0  0  0
  -21.7587   -4.9361    9.6727 C   0  0  0  0  0  0  0  0  0  0  0  0
  -17.8337   -9.9474    4.0237 N   0  0  0  0  0  0  0  0  0  0  0  0
  -21.8624   -6.3192   10.2334 N   0  0  0  0  0  0  0  0  0  0  0  0
  -23.1150   -6.9608   10.2268 C   0  0  0  0  0  0  0  0  0  0  0  0
  -23.7681   -7.2268   11.3937 N   0  0  0  0  0  0  0  0  0  0  0  0
  -23.6403   -7.4501    9.0674 N   0  0  0  0  0  0  0  0  0  0  0  0
  -19.4562   -9.1398    7.5072 C   0  0  0  0  0  0  0  0  0  0  0  0
  -18.9786   -7.9111    8.0395 C   0  0  0  0  0  0  0  0  0  0  0  0
  -17.6186   -7.7957    8.4407 C   0  0  0  0  0  0  0  0  0  0  0  0
  -16.7415   -8.9064    8.3091 C   0  0  0  0  0  0  0  0  0  0  0  0
  -17.2217  -10.1324    7.7784 C   0  0  0  0  0  0  0  0  0  0  0  0
  -18.5785  -10.2484    7.3767 C   0  0  0  0  0  0  0  0  0  0  0  0
  2  4  1  0  0  0  0
  3  5  1  0  0  0  0
  4  7  1  0  0  0  0
  6  1  1  0  0  0  0
  7 10  1  0  0  0  0
  8  6  1  0  0  0  0
  8 11  1  0  0  0  0
  9  6  1  0  0  0  0
 10 13  1  0  0  0  0
 11 14  1  0  0  0  0
 12  9  1  0  0  0  0
 14 12  1  0  0  0  0
 14 15  1  0  0  0  0
 15 16  1  0  0  0  0
 15 17  1  0  0  0  0
 18  2  1  0  0  0  0
 18 23  2  0  0  0  0
 19  1  1  0  0  0  0
 19 18  1  0  0  0  0
 20 19  2  0  0  0  0
 21  3  1  0  0  0  0
 21 20  1  0  0  0  0
 22 21  2  0  0  0  0
 22 23  1  0  0  0  0
M  END
>  <CHROM.1>
62.36010795,-94.10848883,-61.06463660,163.25490054,52.37866553,55.77222958
115.38899848,135.66879486,83.80351578,156.53758296,77.45872867,-19.66862701
-7.89563235,8.31645476,-2.36464864,0.18588009,-2.08669386

>  <Name>
1uui_lig

>  <RI>
0

>  <Rbt.Current_Directory>
/home/itssahil/PROJECTS/Mol_Feturizer/New_Systems/rnas/1uui

>  <Rbt.Executable>
rbdock ($Id: //depot/dev/client3/rdock/2013.1/src/exe/rbdock.cxx#4 $)

>  <Rbt.Library>
libRbt.so (2013.1, Build901 2013/11/27)

>  <Rbt.Parameter_File>
/export/apps/rDock/src/rDock_2013.1_src/data/scripts/dock_solv.prm

>  <Rbt.Receptor>
prm/blind_docking_60.prm

>  <SCORE>
-30.4871

>  <SCORE.INTER>
-26.7068

>  <SCORE.INTER.CONST>
1

>  <SCORE.INTER.POLAR>
-4.17545

>  <SCORE.INTER.ROT>
10

>  <SCORE.INTER.SOLV>
10.7224

>  <SCORE.INTER.VDW>
-17.7272

>  <SCORE.INTER.norm>
-1.16117

>  <SCORE.INTRA>
-3.81104

>  <SCORE.INTRA.DIHEDRAL>
-5.2389

>  <SCORE.INTRA.DIHEDRAL.0>
23.4151

>  <SCORE.INTRA.POLAR>
0

>  <SCORE.INTRA.POLAR.0>
0

>  <SCORE.INTRA.REPUL>
0

>  <SCORE.INTRA.REPUL.0>
0

>  <SCORE.INTRA.SOLV>
0.368096

>  <SCORE.INTRA.SOLV.lig_0>
-17.3568

>  <SCORE.INTRA.VDW>
-1.37564

>  <SCORE.INTRA.VDW.0>
1.0768

>  <SCORE.INTRA.norm>
-0.165697

>  <SCORE.RESTR>
0.0307446

>  <SCORE.RESTR.CAVITY>
0.0307446

>  <SCORE.RESTR.norm>
0.00133672

>  <SCORE.SYSTEM>
0

>  <SCORE.SYSTEM.CONST>
0

>  <SCORE.SYSTEM.DIHEDRAL>
0

>  <SCORE.SYSTEM.SOLV>
0

>  <SCORE.SYSTEM.norm>
0

>  <SCORE.heavy>
23

>  <SCORE.norm>
-1.32553

>  <RMSD>
14.462

$$$$
1uui_lig
 OpenBabel11021811413D
libRbt.so/2013.1/901 2013/11/27
 23 24  0  0  0  0  0  0  0  0999 V2000
  -20.0869   -7.3371    9.7049 C   0  0  0  0  0  0  0  0  0  0  0  0
  -19.4044   -9.5680    7.9704 O   0  0  0  0  0  0  0  0  0  0  0  0
  -15.6392   -8.0582   11.9764 O   0  0  0  0  0  0  0  0  0  0  0  0
  -18.7959   -9.4869    6.6753 C   0  0  0  0  0  0  0  0  0  0  0  0
  -15.8308   -8.8630   13.1424 C   0  0  0  0  0  0  0  0  0  0  0  0
  -20.7326   -7.1665   11.0479 N   0  0  0  0  0  0  0  0  0  0  0  0
  -18.5798   -8.0162    6.3158 C   0  0  0  0  0  0  0  0  0  0  0  0
  -22.2081   -7.0191   10.9223 C   0  0  0  0  0  0  0  0  0  0  0  0
  -20.1751   -5.9859   11.7592 C   0  0  0  0  0  0  0  0  0  0  0  0
  -17.8443   -7.9072    4.9762 C   0  0  0  0  0  0  0  0  0  0  0  0
  -22.5939   -5.7842   10.0903 C   0  0  0  0  0  0  0  0  0  0  0  0
  -20.3925   -4.6886   10.9618 C   0  0  0  0  0  0  0  0  0  0  0  0
  -17.5281   -6.4878    4.7005 N   0  0  0  0  0  0  0  0  0  0  0  0
  -21.4422   -4.8462    9.9076 N   0  0  0  0  0  0  0  0  0  0  0  0
  -21.4829   -3.9207    8.8483 C   0  0  0  0  0  0  0  0  0  0  0  0
  -21.3163   -2.5875    9.0805 N   0  0  0  0  0  0  0  0  0  0  0  0
  -21.8226   -4.3185    7.5889 N   0  0  0  0  0  0  0  0  0  0  0  0
  -18.4629   -9.1898    8.9787 C   0  0  0  0  0  0  0  0  0  0  0  0
  -18.7524   -8.1045    9.8502 C   0  0  0  0  0  0  0  0  0  0  0  0
  -17.8110   -7.7292   10.8486 C   0  0  0  0  0  0  0  0  0  0  0  0
  -16.5854   -8.4382   10.9731 C   0  0  0  0  0  0  0  0  0  0  0  0
  -16.2998   -9.5223   10.1022 C   0  0  0  0  0  0  0  0  0  0  0  0
  -17.2380   -9.8971    9.1047 C   0  0  0  0  0  0  0  0  0  0  0  0
  2  4  1  0  0  0  0
  3  5  1  0  0  0  0
  4  7  1  0  0  0  0
  6  1  1  0  0  0  0
  7 10  1  0  0  0  0
  8  6  1  0  0  0  0
  8 11  1  0  0  0  0
  9  6  1  0  0  0  0
 10 13  1  0  0  0  0
 11 14  1  0  0  0  0
 12  9  1  0  0  0  0
 14 12  1  0  0  0  0
 14 15  1  0  0  0  0
 15 16  1  0  0  0  0
 15 17  1  0  0  0  0
 18  2  1  0  0  0  0
 18 23  2  0  0  0  0
 19  1  1  0  0  0  0
 19 18  1  0  0  0  0
 20 19  2  0  0  0  0
 21  3  1  0  0  0  0
 21 20  1  0  0  0  0
 22 21  2  0  0  0  0
 22 23  1  0  0  0  0
M  END
>  <CHROM.1>
-70.70066822,176.20600233,-154.23854202,-174.70904541,-56.45064010,125.72414577
134.05963283,65.44964586,121.56620952,132.68757293,94.91350521,-19.19751009
-7.10785695,9.32292837,3.09979759,0.75925435,-1.61420206

>  <Name>
1uui_lig

>  <RI>
0

>  <Rbt.Current_Directory>
/home/itssahil/PROJECTS/Mol_Feturizer/New_Systems/rnas/1uui

>  <Rbt.Executable>
rbdock ($Id: //depot/dev/client3/rdock/2013.1/src/exe/rbdock.cxx#4 $)

>  <Rbt.Library>
libRbt.so (2013.1, Build901 2013/11/27)

>  <Rbt.Parameter_File>
/export/apps/rDock/src/rDock_2013.1_src/data/scripts/dock_solv.prm

>  <Rbt.Receptor>
prm/blind_docking_80.prm

>  <SCORE>
-21.1641

>  <SCORE.INTER>
-15.4307

>  <SCORE.INTER.CONST>
1

>  <SCORE.INTER.POLAR>
-1.55202

>  <SCORE.INTER.ROT>
10

>  <SCORE.INTER.SOLV>
6.0071

>  <SCORE.INTER.VDW>
-17.3828

>  <SCORE.INTER.norm>
-0.6709

>  <SCORE.INTRA>
-5.98799

>  <SCORE.INTRA.DIHEDRAL>
-8.85854

>  <SCORE.INTRA.DIHEDRAL.0>
23.4151

>  <SCORE.INTRA.POLAR>
0

>  <SCORE.INTRA.POLAR.0>
0

>  <SCORE.INTRA.REPUL>
0

>  <SCORE.INTRA.REPUL.0>
0

>  <SCORE.INTRA.SOLV>
-0.124534

>  <SCORE.INTRA.SOLV.lig_0>
-17.3568

>  <SCORE.INTRA.VDW>
-1.49645

>  <SCORE.INTRA.VDW.0>
1.0768

>  <SCORE.INTRA.norm>
-0.260347

>  <SCORE.RESTR>
0.254553

>  <SCORE.RESTR.CAVITY>
0.254553

>  <SCORE.RESTR.norm>
0.0110675

>  <SCORE.SYSTEM>
0

>  <SCORE.SYSTEM.CONST>
0

>  <SCORE.SYSTEM.DIHEDRAL>
0

>  <SCORE.SYSTEM.SOLV>
0

>  <SCORE.SYSTEM.norm>
0

>  <SCORE.heavy>
23

>  <SCORE.norm>
-0.92018

>  <RMSD>
14.464

$$$$
1uui_lig
 OpenBabel11021811413D
libRbt.so/2013.1/901 2013/11/27
 23 24  0  0  0  0  0  0  0  0999 V2000
  -18.8532   -6.4007    9.5725 C   0  0  0  0  0  0  0  0  0  0  0  0
  -17.0193   -7.0919    7.4253 O   0  0  0  0  0  0  0  0  0  0  0  0
  -16.0654   -9.3473   12.5738 O   0  0  0  0  0  0  0  0  0  0  0  0
  -18.0553   -7.8173    6.7513 C   0  0  0  0  0  0  0  0  0  0  0  0
  -15.6636   -8.3151   13.4778 C   0  0  0  0  0  0  0  0  0  0  0  0
  -19.1167   -5.5988   10.8122 N   0  0  0  0  0  0  0  0  0  0  0  0
  -17.5693   -9.2407    6.4734 C   0  0  0  0  0  0  0  0  0  0  0  0
  -19.8800   -6.3906   11.8148 C   0  0  0  0  0  0  0  0  0  0  0  0
  -19.8633   -4.3540   10.4910 C   0  0  0  0  0  0  0  0  0  0  0  0
  -18.2564  -10.2240    7.4263 C   0  0  0  0  0  0  0  0  0  0  0  0
  -21.2524   -6.8297   11.2767 C   0  0  0  0  0  0  0  0  0  0  0  0
  -21.2177   -4.6597    9.8288 C   0  0  0  0  0  0  0  0  0  0  0  0
  -17.4102  -11.4273    7.5889 N   0  0  0  0  0  0  0  0  0  0  0  0
  -21.6388   -6.0796   10.0407 N   0  0  0  0  0  0  0  0  0  0  0  0
  -22.6156   -6.6306    9.1905 C   0  0  0  0  0  0  0  0  0  0  0  0
  -22.2573   -7.2893    8.0518 N   0  0  0  0  0  0  0  0  0  0  0  0
  -23.9415   -6.4030    9.4141 N   0  0  0  0  0  0  0  0  0  0  0  0
  -16.7842   -7.6596    8.7170 C   0  0  0  0  0  0  0  0  0  0  0  0
  -17.6538   -7.3502    9.7983 C   0  0  0  0  0  0  0  0  0  0  0  0
  -17.4134   -7.9137   11.0823 C   0  0  0  0  0  0  0  0  0  0  0  0
  -16.3067   -8.7831   11.2817 C   0  0  0  0  0  0  0  0  0  0  0  0
  -15.4409   -9.0911   10.1996 C   0  0  0  0  0  0  0  0  0  0  0  0
  -15.6792   -8.5285    8.9181 C   0  0  0  0  0  0  0  0  0  0  0  0
  2  4  1  0  0  0  0
  3  5  1  0  0  0  0
  4  7  1  0  0  0  0
  6  1  1  0  0  0  0
  7 10  1  0  0  0  0
  8  6  1  0  0  0  0
  8 11  1  0  0  0  0
  9  6  1  0  0  0  0
 10 13  1  0  0  0  0
 11 14  1  0  0  0  0
 12  9  1  0  0  0  0
 14 12  1  0  0  0  0
 14 15  1  0  0  0  0
 15 16  1  0  0  0  0
 15 17  1  0  0  0  0
 18  2  1  0  0  0  0
 18 23  2  0  0  0  0
 19  1  1  0  0  0  0
 19 18  1  0  0  0  0
 20 19  2  0  0  0  0
 21  3  1  0  0  0  0
 21 20  1  0  0  0  0
 22 21  2  0  0  0  0
 22 23  1  0  0  0  0
M  END
>  <CHROM.1>
-65.40788130,106.00695289,-80.00610357,-155.21044465,-42.47380296,-100.20011319
37.48676854,-25.47605866,-79.69174044,-146.77273731,-68.39363091,-18.74326586
-7.56170907,9.64235259,-2.93581016,0.47006647,-2.00994878

>  <Name>
1uui_lig

>  <RI>
0

>  <Rbt.Current_Directory>
/home/itssahil/PROJECTS/Mol_Feturizer/New_Systems/rnas/1uui

>  <Rbt.Executable>
rbdock ($Id: //depot/dev/client3/rdock/2013.1/src/exe/rbdock.cxx#4 $)

>  <Rbt.Library>
libRbt.so (2013.1, Build901 2013/11/27)

>  <Rbt.Parameter_File>
/export/apps/rDock/src/rDock_2013.1_src/data/scripts/dock_solv.prm

>  <Rbt.Receptor>
prm/blind_docking_80.prm

>  <SCORE>
-31.6616

>  <SCORE.INTER>
-29.2537

>  <SCORE.INTER.CONST>
1

>  <SCORE.INTER.POLAR>
-3.43995

>  <SCORE.INTER.ROT>
10

>  <SCORE.INTER.SOLV>
10.3802

>  <SCORE.INTER.VDW>
-21.7627

>  <SCORE.INTER.norm>
-1.2719

>  <SCORE.INTRA>
-2.89675

>  <SCORE.INTRA.DIHEDRAL>
-1.74928

>  <SCORE.INTRA.DIHEDRAL.0>
23.4151

>  <SCORE.INTRA.POLAR>
0

>  <SCORE.INTRA.POLAR.0>
0

>  <SCORE.INTRA.REPUL>
0

>  <SCORE.INTRA.REPUL.0>
0

>  <SCORE.INTRA.SOLV>
0.221366

>  <SCORE.INTRA.SOLV.lig_0>
-17.3568

>  <SCORE.INTRA.VDW>
-2.1328

>  <SCORE.INTRA.VDW.0>
1.0768

>  <SCORE.INTRA.norm>
-0.125946

>  <SCORE.RESTR>
0.488885

>  <SCORE.RESTR.CAVITY>
0.488885

>  <SCORE.RESTR.norm>
0.0212558

>  <SCORE.SYSTEM>
0

>  <SCORE.SYSTEM.CONST>
0

>  <SCORE.SYSTEM.DIHEDRAL>
0

>  <SCORE.SYSTEM.SOLV>
0

>  <SCORE.SYSTEM.norm>
0

>  <SCORE.heavy>
23

>  <SCORE.norm>
-1.37659

>  <RMSD>
14.468

$$$$
1uui_lig
 OpenBabel11021811413D
libRbt.so/2013.1/901 2013/11/27
 23 24  0  0  0  0  0  0  0  0999 V2000
  -19.5900   -6.4658    9.1363 C   0  0  0  0  0  0  0  0  0  0  0  0
  -19.3372   -8.3352    6.9243 O   0  0  0  0  0  0  0  0  0  0  0  0
  -15.5419   -8.6940   11.1636 O   0  0  0  0  0  0  0  0  0  0  0  0
  -18.7793   -8.8827    5.7231 C   0  0  0  0  0  0  0  0  0  0  0  0
  -16.2232   -8.9257   12.3990 C   0  0  0  0  0  0  0  0  0  0  0  0
  -19.2723   -5.4262   10.1696 N   0  0  0  0  0  0  0  0  0  0  0  0
  -19.8461   -9.7156    5.0109 C   0  0  0  0  0  0  0  0  0  0  0  0
  -19.9376   -5.7323   11.4651 C   0  0  0  0  0  0  0  0  0  0  0  0
  -19.6848   -4.0746    9.7076 C   0  0  0  0  0  0  0  0  0  0  0  0
  -19.3061  -10.2220    3.6696 C   0  0  0  0  0  0  0  0  0  0  0  0
  -21.4696   -5.7639   11.3315 C   0  0  0  0  0  0  0  0  0  0  0  0
  -21.1945   -4.0096    9.4201 C   0  0  0  0  0  0  0  0  0  0  0  0
  -18.4176  -11.3827    3.9014 N   0  0  0  0  0  0  0  0  0  0  0  0
  -21.9360   -5.1458   10.0508 N   0  0  0  0  0  0  0  0  0  0  0  0
  -23.2190   -5.4674    9.5703 C   0  0  0  0  0  0  0  0  0  0  0  0
  -23.6753   -6.7517    9.6065 N   0  0  0  0  0  0  0  0  0  0  0  0
  -23.9801   -4.5300    8.9366 N   0  0  0  0  0  0  0  0  0  0  0  0
  -18.3884   -8.4258    7.9910 C   0  0  0  0  0  0  0  0  0  0  0  0
  -18.4714   -7.5325    9.0938 C   0  0  0  0  0  0  0  0  0  0  0  0
  -17.5228   -7.6235   10.1501 C   0  0  0  0  0  0  0  0  0  0  0  0
  -16.4959   -8.6051   10.1015 C   0  0  0  0  0  0  0  0  0  0  0  0
  -16.4165   -9.4965    8.9995 C   0  0  0  0  0  0  0  0  0  0  0  0
  -17.3619   -9.4060    7.9442 C   0  0  0  0  0  0  0  0  0  0  0  0
  2  4  1  0  0  0  0
  3  5  1  0  0  0  0
  4  7  1  0  0  0  0
  6  1  1  0  0  0  0
  7 10  1  0  0  0  0
  8  6  1  0  0  0  0
  8 11  1  0  0  0  0
  9  6  1  0  0  0  0
 10 13  1  0  0  0  0
 11 14  1  0  0  0  0
 12  9  1  0  0  0  0
 14 12  1  0  0  0  0
 14 15  1  0  0  0  0
 15 16  1  0  0  0  0
 15 17  1  0  0  0  0
 18  2  1  0  0  0  0
 18 23  2  0  0  0  0
 19  1  1  0  0  0  0
 19 18  1  0  0  0  0
 20 19  2  0  0  0  0
 21  3  1  0  0  0  0
 21 20  1  0  0  0  0
 22 21  2  0  0  0  0
 22 23  1  0  0  0  0
M  END
>  <CHROM.1>
138.35034276,175.63982727,-95.29409687,78.36398109,58.02412192,-42.65010378
-53.64076752,161.93782953,155.71817320,-164.91142929,58.34732696,-19.44256900
-7.42664996,8.77180597,-2.24915530,0.50860631,-2.11318181

>  <Name>
1uui_lig

>  <RI>
0

>  <Rbt.Current_Directory>
/home/itssahil/PROJECTS/Mol_Feturizer/New_Systems/rnas/1uui

>  <Rbt.Executable>
rbdock ($Id: //depot/dev/client3/rdock/2013.1/src/exe/rbdock.cxx#4 $)

>  <Rbt.Library>
libRbt.so (2013.1, Build901 2013/11/27)

>  <Rbt.Parameter_File>
/export/apps/rDock/src/rDock_2013.1_src/data/scripts/dock_solv.prm

>  <Rbt.Receptor>
prm/blind_docking_100.prm

>  <SCORE>
-21.7039

>  <SCORE.INTER>
-21.8905

>  <SCORE.INTER.CONST>
1

>  <SCORE.INTER.POLAR>
-1.91813

>  <SCORE.INTER.ROT>
10

>  <SCORE.INTER.SOLV>
9.48372

>  <SCORE.INTER.VDW>
-21.6278

>  <SCORE.INTER.norm>
-0.95176

>  <SCORE.INTRA>
0.172635

>  <SCORE.INTRA.DIHEDRAL>
-5.40834

>  <SCORE.INTRA.DIHEDRAL.0>
23.4151

>  <SCORE.INTRA.POLAR>
0

>  <SCORE.INTRA.POLAR.0>
0

>  <SCORE.INTRA.REPUL>
0

>  <SCORE.INTRA.REPUL.0>
0

>  <SCORE.INTRA.SOLV>
0.0179778

>  <SCORE.INTRA.SOLV.lig_0>
-17.3568

>  <SCORE.INTRA.VDW>
2.86781

>  <SCORE.INTRA.VDW.0>
1.0768

>  <SCORE.INTRA.norm>
0.00750587

>  <SCORE.RESTR>
0.0139671

>  <SCORE.RESTR.CAVITY>
0.0139671

>  <SCORE.RESTR.norm>
0.000607266

>  <SCORE.SYSTEM>
0

>  <SCORE.SYSTEM.CONST>
0

>  <SCORE.SYSTEM.DIHEDRAL>
0

>  <SCORE.SYSTEM.SOLV>
0

>  <SCORE.SYSTEM.norm>
0

>  <SCORE.heavy>
23

>  <SCORE.norm>
-0.943646

>  <RMSD>
14.470

$$$$
1uui_lig
 OpenBabel11021811413D
libRbt.so/2013.1/901 2013/11/27
 23 24  0  0  0  0  0  0  0  0999 V2000
  -19.6335   -7.0349    9.3391 C   0  0  0  0  0  0  0  0  0  0  0  0
  -17.7959   -7.7991    7.2201 O   0  0  0  0  0  0  0  0  0  0  0  0
  -16.0329   -8.3726   12.6114 O   0  0  0  0  0  0  0  0  0  0  0  0
  -17.9274   -6.4097    6.8943 C   0  0  0  0  0  0  0  0  0  0  0  0
  -16.4981   -9.6175   13.1385 C   0  0  0  0  0  0  0  0  0  0  0  0
  -19.6791   -5.5581    9.5971 N   0  0  0  0  0  0  0  0  0  0  0  0
  -18.0572   -6.2621    5.3775 C   0  0  0  0  0  0  0  0  0  0  0  0
  -19.8032   -5.2680   11.0514 C   0  0  0  0  0  0  0  0  0  0  0  0
  -20.8097   -4.9260    8.8672 C   0  0  0  0  0  0  0  0  0  0  0  0
  -19.1510   -7.1973    4.8521 C   0  0  0  0  0  0  0  0  0  0  0  0
  -21.0930   -5.8572   11.6473 C   0  0  0  0  0  0  0  0  0  0  0  0
  -22.1628   -5.5222    9.2915 C   0  0  0  0  0  0  0  0  0  0  0  0
  -19.5077   -6.8116    3.4684 N   0  0  0  0  0  0  0  0  0  0  0  0
  -22.0684   -6.2636   10.5876 N   0  0  0  0  0  0  0  0  0  0  0  0
  -23.0764   -7.1902   10.9129 C   0  0  0  0  0  0  0  0  0  0  0  0
  -23.0020   -7.9283   12.0569 N   0  0  0  0  0  0  0  0  0  0  0  0
  -24.0779   -7.4679   10.0301 N   0  0  0  0  0  0  0  0  0  0  0  0
  -17.3572   -7.9458    8.5736 C   0  0  0  0  0  0  0  0  0  0  0  0
  -18.2206   -7.5844    9.6437 C   0  0  0  0  0  0  0  0  0  0  0  0
  -17.7782   -7.7277   10.9882 C   0  0  0  0  0  0  0  0  0  0  0  0
  -16.4767   -8.2308   11.2590 C   0  0  0  0  0  0  0  0  0  0  0  0
  -15.6173   -8.5920   10.1883 C   0  0  0  0  0  0  0  0  0  0  0  0
  -16.0573   -8.4484    8.8461 C   0  0  0  0  0  0  0  0  0  0  0  0
  2  4  1  0  0  0  0
  3  5  1  0  0  0  0
  4  7  1  0  0  0  0
  6  1  1  0  0  0  0
  7 10  1  0  0  0  0
  8  6  1  0  0  0  0
  8 11  1  0  0  0  0
  9  6  1  0  0  0  0
 10 13  1  0  0  0  0
 11 14  1  0  0  0  0
 12  9  1  0  0  0  0
 14 12  1  0  0  0  0
 14 15  1  0  0  0  0
 15 16  1  0  0  0  0
 15 17  1  0  0  0  0
 18  2  1  0  0  0  0
 18 23  2  0  0  0  0
 19  1  1  0  0  0  0
 19 18  1  0  0  0  0
 20 19  2  0  0  0  0
 21  3  1  0  0  0  0
 21 20  1  0  0  0  0
 22 21  2  0  0  0  0
 22 23  1  0  0  0  0
M  END
>  <CHROM.1>
166.23156886,50.90647819,-78.68474197,165.75811589,68.92362740,-14.47210683
26.74695659,88.05889645,68.18909706,-106.19698812,83.94152811,-19.28114310
-7.12449738,9.37252721,2.39045107,-0.28324606,1.74498540

>  <Name>
1uui_lig

>  <RI>
0

>  <Rbt.Current_Directory>
/home/itssahil/PROJECTS/Mol_Feturizer/New_Systems/rnas/1uui

>  <Rbt.Executable>
rbdock ($Id: //depot/dev/client3/rdock/2013.1/src/exe/rbdock.cxx#4 $)

>  <Rbt.Library>
libRbt.so (2013.1, Build901 2013/11/27)

>  <Rbt.Parameter_File>
/export/apps/rDock/src/rDock_2013.1_src/data/scripts/dock_solv.prm

>  <Rbt.Receptor>
prm/blind_docking_100.prm

>  <SCORE>
-30.5795

>  <SCORE.INTER>
-27.2117

>  <SCORE.INTER.CONST>
1

>  <SCORE.INTER.POLAR>
-2.89781

>  <SCORE.INTER.ROT>
10

>  <SCORE.INTER.SOLV>
8.4527

>  <SCORE.INTER.VDW>
-21.566

>  <SCORE.INTER.norm>
-1.18312

>  <SCORE.INTRA>
-4.53684

>  <SCORE.INTRA.DIHEDRAL>
-7.15791

>  <SCORE.INTRA.DIHEDRAL.0>
23.4151

>  <SCORE.INTRA.POLAR>
0

>  <SCORE.INTRA.POLAR.0>
0

>  <SCORE.INTRA.REPUL>
0

>  <SCORE.INTRA.REPUL.0>
0

>  <SCORE.INTRA.SOLV>
0.147987

>  <SCORE.INTRA.SOLV.lig_0>
-17.3568

>  <SCORE.INTRA.VDW>
-1.03188

>  <SCORE.INTRA.VDW.0>
1.0768

>  <SCORE.INTRA.norm>
-0.197254

>  <SCORE.RESTR>
1.16911

>  <SCORE.RESTR.CAVITY>
1.16911

>  <SCORE.RESTR.norm>
0.0508308

>  <SCORE.SYSTEM>
0

>  <SCORE.SYSTEM.CONST>
0

>  <SCORE.SYSTEM.DIHEDRAL>
0

>  <SCORE.SYSTEM.SOLV>
0

>  <SCORE.SYSTEM.norm>
0

>  <SCORE.heavy>
23

>  <SCORE.norm>
-1.32954

>  <RMSD>
14.481

$$$$
1uui_lig
 OpenBabel11021811413D
libRbt.so/2013.1/901 2013/11/27
 23 24  0  0  0  0  0  0  0  0999 V2000
  -19.3352   -6.3968    8.8831 C   0  0  0  0  0  0  0  0  0  0  0  0
  -18.2968   -8.2432    6.8922 O   0  0  0  0  0  0  0  0  0  0  0  0
  -15.8143   -8.1852   12.0242 O   0  0  0  0  0  0  0  0  0  0  0  0
  -17.4198   -8.8476    5.9331 C   0  0  0  0  0  0  0  0  0  0  0  0
  -16.3924   -9.2006   12.8481 C   0  0  0  0  0  0  0  0  0  0  0  0
  -20.4757   -7.1715    8.2927 N   0  0  0  0  0  0  0  0  0  0  0  0
  -18.1114   -8.8718    4.5692 C   0  0  0  0  0  0  0  0  0  0  0  0
  -21.7027   -6.3351    8.1948 C   0  0  0  0  0  0  0  0  0  0  0  0
  -20.7666   -8.3862    9.0992 C   0  0  0  0  0  0  0  0  0  0  0  0
  -19.2044   -9.9451    4.5552 C   0  0  0  0  0  0  0  0  0  0  0  0
  -22.1744   -5.8426    9.5735 C   0  0  0  0  0  0  0  0  0  0  0  0
  -21.1377   -8.0291   10.5487 C   0  0  0  0  0  0  0  0  0  0  0  0
  -20.2736   -9.5737    5.5089 N   0  0  0  0  0  0  0  0  0  0  0  0
  -21.5194   -6.5897   10.6926 N   0  0  0  0  0  0  0  0  0  0  0  0
  -21.4925   -6.0065   11.9731 C   0  0  0  0  0  0  0  0  0  0  0  0
  -22.3537   -6.4203   12.9458 N   0  0  0  0  0  0  0  0  0  0  0  0
  -20.7002   -4.9267   12.2297 N   0  0  0  0  0  0  0  0  0  0  0  0
  -17.6780   -8.2296    8.1818 C   0  0  0  0  0  0  0  0  0  0  0  0
  -18.1508   -7.3431    9.1877 C   0  0  0  0  0  0  0  0  0  0  0  0
  -17.5293   -7.3300   10.4673 C   0  0  0  0  0  0  0  0  0  0  0  0
  -16.4392   -8.2011   10.7376 C   0  0  0  0  0  0  0  0  0  0  0  0
  -15.9702   -9.0861    9.7315 C   0  0  0  0  0  0  0  0  0  0  0  0
  -16.5889   -9.0993    8.4537 C   0  0  0  0  0  0  0  0  0  0  0  0
  2  4  1  0  0  0  0
  3  5  1  0  0  0  0
  4  7  1  0  0  0  0
  6  1  1  0  0  0  0
  7 10  1  0  0  0  0
  8  6  1  0  0  0  0
  8 11  1  0  0  0  0
  9  6  1  0  0  0  0
 10 13  1  0  0  0  0
 11 14  1  0  0  0  0
 12  9  1  0  0  0  0
 14 12  1  0  0  0  0
 14 15  1  0  0  0  0
 15 16  1  0  0  0  0
 15 17  1  0  0  0  0
 18  2  1  0  0  0  0
 18 23  2  0  0  0  0
 19  1  1  0  0  0  0
 19 18  1  0  0  0  0
 20 19  2  0  0  0  0
 21  3  1  0  0  0  0
 21 20  1  0  0  0  0
 22 21  2  0  0  0  0
 22 23  1  0  0  0  0
M  END
>  <CHROM.1>
179.06588838,-73.87096494,170.75353979,65.59406373,-51.55589933,102.42989283
90.91335936,-154.03491140,160.84597881,50.47346903,94.78445645,-19.16894817
-7.74411221,9.20268248,1.98181522,-0.37565485,1.29338123

>  <Name>
1uui_lig

>  <RI>
0

>  <Rbt.Current_Directory>
/home/itssahil/PROJECTS/Mol_Feturizer/New_Systems/rnas/1uui

>  <Rbt.Executable>
rbdock ($Id: //depot/dev/client3/rdock/2013.1/src/exe/rbdock.cxx#4 $)

>  <Rbt.Library>
libRbt.so (2013.1, Build901 2013/11/27)

>  <Rbt.Parameter_File>
/export/apps/rDock/src/rDock_2013.1_src/data/scripts/dock_solv.prm

>  <Rbt.Receptor>
prm/blind_docking_100.prm

>  <SCORE>
-24.6411

>  <SCORE.INTER>
-16.4564

>  <SCORE.INTER.CONST>
1

>  <SCORE.INTER.POLAR>
-1.65296

>  <SCORE.INTER.ROT>
10

>  <SCORE.INTER.SOLV>
7.69196

>  <SCORE.INTER.VDW>
-18.2917

>  <SCORE.INTER.norm>
-0.715494

>  <SCORE.INTRA>
-9.19757

>  <SCORE.INTRA.DIHEDRAL>
-12.5066

>  <SCORE.INTRA.DIHEDRAL.0>
23.4151

>  <SCORE.INTRA.POLAR>
-1.05348

>  <SCORE.INTRA.POLAR.0>
0

>  <SCORE.INTRA.REPUL>
0

>  <SCORE.INTRA.REPUL.0>
0

>  <SCORE.INTRA.SOLV>
1.19771

>  <SCORE.INTRA.SOLV.lig_0>
-17.3568

>  <SCORE.INTRA.VDW>
0.038702

>  <SCORE.INTRA.VDW.0>
1.0768

>  <SCORE.INTRA.norm>
-0.399894

>  <SCORE.RESTR>
1.01287

>  <SCORE.RESTR.CAVITY>
1.01287

>  <SCORE.RESTR.norm>
0.0440378

>  <SCORE.SYSTEM>
0

>  <SCORE.SYSTEM.CONST>
0

>  <SCORE.SYSTEM.DIHEDRAL>
0

>  <SCORE.SYSTEM.SOLV>
0

>  <SCORE.SYSTEM.norm>
0

>  <SCORE.heavy>
23

>  <SCORE.norm>
-1.07135

>  <RMSD>
14.482

$$$$
1uui_lig
 OpenBabel11021811413D
libRbt.so/2013.1/901 2013/11/27
 23 24  0  0  0  0  0  0  0  0999 V2000
  -20.2699   -7.3743    7.0524 C   0  0  0  0  0  0  0  0  0  0  0  0
  -21.9859   -5.5897    8.5763 O   0  0  0  0  0  0  0  0  0  0  0  0
  -17.1006   -7.2838   10.9778 O   0  0  0  0  0  0  0  0  0  0  0  0
  -21.7406   -4.5154    7.6599 C   0  0  0  0  0  0  0  0  0  0  0  0
  -17.3572   -8.3895   11.8470 C   0  0  0  0  0  0  0  0  0  0  0  0
  -19.4722   -6.6361    6.0189 N   0  0  0  0  0  0  0  0  0  0  0  0
  -21.9629   -3.1841    8.3794 C   0  0  0  0  0  0  0  0  0  0  0  0
  -19.9913   -6.8973    4.6488 C   0  0  0  0  0  0  0  0  0  0  0  0
  -18.0362   -7.0151    6.0857 C   0  0  0  0  0  0  0  0  0  0  0  0
  -20.6836   -2.7637    9.1100 C   0  0  0  0  0  0  0  0  0  0  0  0
  -19.9143   -8.3884    4.2793 C   0  0  0  0  0  0  0  0  0  0  0  0
  -17.8357   -8.5220    5.8503 C   0  0  0  0  0  0  0  0  0  0  0  0
  -20.6372   -1.2882    9.2153 N   0  0  0  0  0  0  0  0  0  0  0  0
  -19.0326   -9.1554    5.2142 N   0  0  0  0  0  0  0  0  0  0  0  0
  -19.1847  -10.5519    5.2976 C   0  0  0  0  0  0  0  0  0  0  0  0
  -18.4582  -11.3814    4.4956 N   0  0  0  0  0  0  0  0  0  0  0  0
  -20.1548  -11.1008    6.0831 N   0  0  0  0  0  0  0  0  0  0  0  0
  -20.7578   -6.0130    9.1752 C   0  0  0  0  0  0  0  0  0  0  0  0
  -19.8864   -6.8862    8.4687 C   0  0  0  0  0  0  0  0  0  0  0  0
  -18.6682   -7.3081    9.0703 C   0  0  0  0  0  0  0  0  0  0  0  0
  -18.3250   -6.8570   10.3738 C   0  0  0  0  0  0  0  0  0  0  0  0
  -19.1966   -5.9841   11.0762 C   0  0  0  0  0  0  0  0  0  0  0  0
  -20.4131   -5.5632   10.4773 C   0  0  0  0  0  0  0  0  0  0  0  0
  2  4  1  0  0  0  0
  3  5  1  0  0  0  0
  4  7  1  0  0  0  0
  6  1  1  0  0  0  0
  7 10  1  0  0  0  0
  8  6  1  0  0  0  0
  8 11  1  0  0  0  0
  9  6  1  0  0  0  0
 10 13  1  0  0  0  0
 11 14  1  0  0  0  0
 12  9  1  0  0  0  0
 14 12  1  0  0  0  0
 14 15  1  0  0  0  0
 15 16  1  0  0  0  0
 15 17  1  0  0  0  0
 18  2  1  0  0  0  0
 18 23  2  0  0  0  0
 19  1  1  0  0  0  0
 19 18  1  0  0  0  0
 20 19  2  0  0  0  0
 21  3  1  0  0  0  0
 21 20  1  0  0  0  0
 22 21  2  0  0  0  0
 22 23  1  0  0  0  0
M  END
>  <CHROM.1>
-94.74326804,85.61063536,-169.48534686,152.05534076,-156.38217284,90.90605699
84.92248743,-7.65407330,-80.55538621,103.86483545,-97.17610919,-19.61191709
-6.89427079,7.77253890,1.20820954,0.99225141,-2.19987540

>  <Name>
1uui_lig

>  <RI>
0

>  <Rbt.Current_Directory>
/home/itssahil/PROJECTS/Mol_Feturizer/New_Systems/rnas/1uui

>  <Rbt.Executable>
rbdock ($Id: //depot/dev/client3/rdock/2013.1/src/exe/rbdock.cxx#4 $)

>  <Rbt.Library>
libRbt.so (2013.1, Build901 2013/11/27)

>  <Rbt.Parameter_File>
/export/apps/rDock/src/rDock_2013.1_src/data/scripts/dock_solv.prm

>  <Rbt.Receptor>
prm/blind_docking_100.prm

>  <SCORE>
-19.7562

>  <SCORE.INTER>
-17.8065

>  <SCORE.INTER.CONST>
1

>  <SCORE.INTER.POLAR>
-2.97824

>  <SCORE.INTER.ROT>
10

>  <SCORE.INTER.SOLV>
3.99359

>  <SCORE.INTER.VDW>
-13.5414

>  <SCORE.INTER.norm>
-0.774197

>  <SCORE.INTRA>
-2.57099

>  <SCORE.INTRA.DIHEDRAL>
0.910315

>  <SCORE.INTRA.DIHEDRAL.0>
23.4151

>  <SCORE.INTRA.POLAR>
0

>  <SCORE.INTRA.POLAR.0>
0

>  <SCORE.INTRA.REPUL>
0

>  <SCORE.INTRA.REPUL.0>
0

>  <SCORE.INTRA.SOLV>
0.155153

>  <SCORE.INTRA.SOLV.lig_0>
-17.3568

>  <SCORE.INTRA.VDW>
-3.10372

>  <SCORE.INTRA.VDW.0>
1.0768

>  <SCORE.INTRA.norm>
-0.111782

>  <SCORE.RESTR>
0.621365

>  <SCORE.RESTR.CAVITY>
0.621365

>  <SCORE.RESTR.norm>
0.0270159

>  <SCORE.SYSTEM>
0

>  <SCORE.SYSTEM.CONST>
0

>  <SCORE.SYSTEM.DIHEDRAL>
0

>  <SCORE.SYSTEM.SOLV>
0

>  <SCORE.SYSTEM.norm>
0

>  <SCORE.heavy>
23

>  <SCORE.norm>
-0.858963

>  <RMSD>
14.483

$$$$
1uui_lig
 OpenBabel11021811413D
libRbt.so/2013.1/901 2013/11/27
 23 24  0  0  0  0  0  0  0  0999 V2000
  -20.7510   -7.7932    7.5563 C   0  0  0  0  0  0  0  0  0  0  0  0
  -19.6176   -5.2165    8.2826 O   0  0  0  0  0  0  0  0  0  0  0  0
  -23.3092   -7.6193   11.9023 O   0  0  0  0  0  0  0  0  0  0  0  0
  -19.9108   -3.8206    8.1435 C   0  0  0  0  0  0  0  0  0  0  0  0
  -22.6157   -8.0590   13.0727 C   0  0  0  0  0  0  0  0  0  0  0  0
  -21.5406   -7.2137    6.4204 N   0  0  0  0  0  0  0  0  0  0  0  0
  -18.8037   -3.1566    7.3234 C   0  0  0  0  0  0  0  0  0  0  0  0
  -21.8193   -8.2393    5.3787 C   0  0  0  0  0  0  0  0  0  0  0  0
  -20.8233   -6.0654    5.8062 C   0  0  0  0  0  0  0  0  0  0  0  0
  -18.9587   -3.5200    5.8432 C   0  0  0  0  0  0  0  0  0  0  0  0
  -20.5258   -8.8063    4.7693 C   0  0  0  0  0  0  0  0  0  0  0  0
  -19.4467   -6.4824    5.2610 C   0  0  0  0  0  0  0  0  0  0  0  0
  -17.6304   -3.5103    5.1905 N   0  0  0  0  0  0  0  0  0  0  0  0
  -19.3325   -7.9653    5.0986 N   0  0  0  0  0  0  0  0  0  0  0  0
  -18.0512   -8.5399    5.0053 C   0  0  0  0  0  0  0  0  0  0  0  0
  -17.7686   -9.7186    5.6295 N   0  0  0  0  0  0  0  0  0  0  0  0
  -17.0289   -7.8673    4.4035 N   0  0  0  0  0  0  0  0  0  0  0  0
  -20.5411   -5.8231    9.1911 C   0  0  0  0  0  0  0  0  0  0  0  0
  -21.1220   -7.0825    8.8787 C   0  0  0  0  0  0  0  0  0  0  0  0
  -22.0435   -7.6798    9.7831 C   0  0  0  0  0  0  0  0  0  0  0  0
  -22.3811   -7.0181   10.9949 C   0  0  0  0  0  0  0  0  0  0  0  0
  -21.7984   -5.7612   11.3046 C   0  0  0  0  0  0  0  0  0  0  0  0
  -20.8795   -5.1637   10.4023 C   0  0  0  0  0  0  0  0  0  0  0  0
  2  4  1  0  0  0  0
  3  5  1  0  0  0  0
  4  7  1  0  0  0  0
  6  1  1  0  0  0  0
  7 10  1  0  0  0  0
  8  6  1  0  0  0  0
  8 11  1  0  0  0  0
  9  6  1  0  0  0  0
 10 13  1  0  0  0  0
 11 14  1  0  0  0  0
 12  9  1  0  0  0  0
 14 12  1  0  0  0  0
 14 15  1  0  0  0  0
 15 16  1  0  0  0  0
 15 17  1  0  0  0  0
 18  2  1  0  0  0  0
 18 23  2  0  0  0  0
 19  1  1  0  0  0  0
 19 18  1  0  0  0  0
 20 19  2  0  0  0  0
 21  3  1  0  0  0  0
 21 20  1  0  0  0  0
 22 21  2  0  0  0  0
 22 23  1  0  0  0  0
M  END
>  <CHROM.1>
172.37021303,75.11130765,-148.44295171,-151.01077211,-171.61236614,-51.75022718
164.80801863,34.16273986,136.13401781,-80.70824634,109.51681477,-20.22888234
-6.61331053,7.56817227,2.74758950,0.98283912,0.48143250

>  <Name>
1uui_lig

>  <RI>
0

>  <Rbt.Current_Directory>
/home/itssahil/PROJECTS/Mol_Feturizer/New_Systems/rnas/1uui

>  <Rbt.Executable>
rbdock ($Id: //depot/dev/client3/rdock/2013.1/src/exe/rbdock.cxx#4 $)

>  <Rbt.Library>
libRbt.so (2013.1, Build901 2013/11/27)

>  <Rbt.Parameter_File>
/export/apps/rDock/src/rDock_2013.1_src/data/scripts/dock_solv.prm

>  <Rbt.Receptor>
prm/blind_docking_40.prm

>  <SCORE>
-25.1623

>  <SCORE.INTER>
-21.4081

>  <SCORE.INTER.CONST>
1

>  <SCORE.INTER.POLAR>
-3.36324

>  <SCORE.INTER.ROT>
10

>  <SCORE.INTER.SOLV>
7.39117

>  <SCORE.INTER.VDW>
-15.7917

>  <SCORE.INTER.norm>
-0.930786

>  <SCORE.INTRA>
-3.75426

>  <SCORE.INTRA.DIHEDRAL>
-6.71697

>  <SCORE.INTRA.DIHEDRAL.0>
23.4151

>  <SCORE.INTRA.POLAR>
0

>  <SCORE.INTRA.POLAR.0>
0

>  <SCORE.INTRA.REPUL>
0.0192144

>  <SCORE.INTRA.REPUL.0>
0

>  <SCORE.INTRA.SOLV>
0.626204

>  <SCORE.INTRA.SOLV.lig_0>
-17.3568

>  <SCORE.INTRA.VDW>
-0.804948

>  <SCORE.INTRA.VDW.0>
1.0768

>  <SCORE.INTRA.norm>
-0.163229

>  <SCORE.RESTR>
0

>  <SCORE.RESTR.CAVITY>
0

>  <SCORE.RESTR.norm>
0

>  <SCORE.SYSTEM>
0

>  <SCORE.SYSTEM.CONST>
0

>  <SCORE.SYSTEM.DIHEDRAL>
0

>  <SCORE.SYSTEM.SOLV>
0

>  <SCORE.SYSTEM.norm>
0

>  <SCORE.heavy>
23

>  <SCORE.norm>
-1.09401

>  <RMSD>
14.489

$$$$
1uui_lig
 OpenBabel11021811413D
libRbt.so/2013.1/901 2013/11/27
 23 24  0  0  0  0  0  0  0  0999 V2000
  -19.5929   -7.0477    9.4146 C   0  0  0  0  0  0  0  0  0  0  0  0
  -18.3400   -8.1238    7.0222 O   0  0  0  0  0  0  0  0  0  0  0  0
  -15.4678   -8.4983   11.9328 O   0  0  0  0  0  0  0  0  0  0  0  0
  -19.4057   -9.0817    6.9976 C   0  0  0  0  0  0  0  0  0  0  0  0
  -16.2621   -9.1870   12.9017 C   0  0  0  0  0  0  0  0  0  0  0  0
  -20.3544   -7.3814   10.6628 N   0  0  0  0  0  0  0  0  0  0  0  0
  -18.8517  -10.4344    6.5474 C   0  0  0  0  0  0  0  0  0  0  0  0
  -21.8139   -7.4885   10.3920 C   0  0  0  0  0  0  0  0  0  0  0  0
  -20.1196   -6.3601   11.7174 C   0  0  0  0  0  0  0  0  0  0  0  0
  -18.4966  -10.3853    5.0579 C   0  0  0  0  0  0  0  0  0  0  0  0
  -22.3987   -6.1686    9.8613 C   0  0  0  0  0  0  0  0  0  0  0  0
  -20.5565   -4.9588   11.2573 C   0  0  0  0  0  0  0  0  0  0  0  0
  -19.7392  -10.3701    4.2542 N   0  0  0  0  0  0  0  0  0  0  0  0
  -21.4687   -5.0154   10.0729 N   0  0  0  0  0  0  0  0  0  0  0  0
  -21.6340   -3.8582    9.2892 C   0  0  0  0  0  0  0  0  0  0  0  0
  -21.0356   -2.6853    9.6430 N   0  0  0  0  0  0  0  0  0  0  0  0
  -22.5013   -3.8482    8.2369 N   0  0  0  0  0  0  0  0  0  0  0  0
  -17.6229   -8.2201    8.2561 C   0  0  0  0  0  0  0  0  0  0  0  0
  -18.1948   -7.7072    9.4524 C   0  0  0  0  0  0  0  0  0  0  0  0
  -17.4759   -7.8012   10.6764 C   0  0  0  0  0  0  0  0  0  0  0  0
  -16.1900   -8.4063   10.7015 C   0  0  0  0  0  0  0  0  0  0  0  0
  -15.6221   -8.9186    9.5055 C   0  0  0  0  0  0  0  0  0  0  0  0
  -16.3382   -8.8244    8.2832 C   0  0  0  0  0  0  0  0  0  0  0  0
  2  4  1  0  0  0  0
  3  5  1  0  0  0  0
  4  7  1  0  0  0  0
  6  1  1  0  0  0  0
  7 10  1  0  0  0  0
  8  6  1  0  0  0  0
  8 11  1  0  0  0  0
  9  6  1  0  0  0  0
 10 13  1  0  0  0  0
 11 14  1  0  0  0  0
 12  9  1  0  0  0  0
 14 12  1  0  0  0  0
 14 15  1  0  0  0  0
 15 16  1  0  0  0  0
 15 17  1  0  0  0  0
 18  2  1  0  0  0  0
 18 23  2  0  0  0  0
 19  1  1  0  0  0  0
 19 18  1  0  0  0  0
 20 19  2  0  0  0  0
 21  3  1  0  0  0  0
 21 20  1  0  0  0  0
 22 21  2  0  0  0  0
 22 23  1  0  0  0  0
M  END
>  <CHROM.1>
-83.58791874,-71.02232444,-147.21665206,-72.43284423,62.63825922,164.58690659
-99.04913794,-9.00197734,-74.68840340,143.30982818,56.37311768,-19.16632452
-7.40552598,9.18334281,-2.45408532,0.65361745,-2.11595530

>  <Name>
1uui_lig

>  <RI>
0

>  <Rbt.Current_Directory>
/home/itssahil/PROJECTS/Mol_Feturizer/New_Systems/rnas/1uui

>  <Rbt.Executable>
rbdock ($Id: //depot/dev/client3/rdock/2013.1/src/exe/rbdock.cxx#4 $)

>  <Rbt.Library>
libRbt.so (2013.1, Build901 2013/11/27)

>  <Rbt.Parameter_File>
/export/apps/rDock/src/rDock_2013.1_src/data/scripts/dock_solv.prm

>  <Rbt.Receptor>
prm/blind_docking_80.prm

>  <SCORE>
-19.7156

>  <SCORE.INTER>
-17.2387

>  <SCORE.INTER.CONST>
1

>  <SCORE.INTER.POLAR>
-1.67571

>  <SCORE.INTER.ROT>
10

>  <SCORE.INTER.SOLV>
6.13912

>  <SCORE.INTER.VDW>
-18.2198

>  <SCORE.INTER.norm>
-0.749507

>  <SCORE.INTRA>
-2.67817

>  <SCORE.INTRA.DIHEDRAL>
-5.94675

>  <SCORE.INTRA.DIHEDRAL.0>
23.4151

>  <SCORE.INTRA.POLAR>
0

>  <SCORE.INTRA.POLAR.0>
0

>  <SCORE.INTRA.REPUL>
0

>  <SCORE.INTRA.REPUL.0>
0

>  <SCORE.INTRA.SOLV>
0.174422

>  <SCORE.INTRA.SOLV.lig_0>
-17.3568

>  <SCORE.INTRA.VDW>
0.207997

>  <SCORE.INTRA.VDW.0>
1.0768

>  <SCORE.INTRA.norm>
-0.116442

>  <SCORE.RESTR>
0.201189

>  <SCORE.RESTR.CAVITY>
0.201189

>  <SCORE.RESTR.norm>
0.00874736

>  <SCORE.SYSTEM>
0

>  <SCORE.SYSTEM.CONST>
0

>  <SCORE.SYSTEM.DIHEDRAL>
0

>  <SCORE.SYSTEM.SOLV>
0

>  <SCORE.SYSTEM.norm>
0

>  <SCORE.heavy>
23

>  <SCORE.norm>
-0.857201

>  <RMSD>
14.492

$$$$
1uui_lig
 OpenBabel11021811413D
libRbt.so/2013.1/901 2013/11/27
 23 24  0  0  0  0  0  0  0  0999 V2000
  -19.5648   -7.3170    9.0223 C   0  0  0  0  0  0  0  0  0  0  0  0
  -17.5318   -7.7827    6.9971 O   0  0  0  0  0  0  0  0  0  0  0  0
  -16.2814   -9.1433   12.3905 O   0  0  0  0  0  0  0  0  0  0  0  0
  -17.6664   -8.9707    6.2068 C   0  0  0  0  0  0  0  0  0  0  0  0
  -15.7925   -7.9851   13.0714 C   0  0  0  0  0  0  0  0  0  0  0  0
  -19.5110   -5.8199    9.0956 N   0  0  0  0  0  0  0  0  0  0  0  0
  -17.8202   -8.5783    4.7366 C   0  0  0  0  0  0  0  0  0  0  0  0
  -19.4564   -5.3505   10.5067 C   0  0  0  0  0  0  0  0  0  0  0  0
  -20.6855   -5.2122    8.4160 C   0  0  0  0  0  0  0  0  0  0  0  0
  -19.1869   -7.9245    4.5093 C   0  0  0  0  0  0  0  0  0  0  0  0
  -20.6973   -5.7843   11.3055 C   0  0  0  0  0  0  0  0  0  0  0  0
  -22.0088   -5.6696    9.0531 C   0  0  0  0  0  0  0  0  0  0  0  0
  -20.2199   -8.9752    4.3696 N   0  0  0  0  0  0  0  0  0  0  0  0
  -21.8041   -6.2546   10.4148 N   0  0  0  0  0  0  0  0  0  0  0  0
  -22.8118   -7.0723   10.9593 C   0  0  0  0  0  0  0  0  0  0  0  0
  -23.8174   -7.5549   10.1753 N   0  0  0  0  0  0  0  0  0  0  0  0
  -22.8810   -7.2897   12.3037 N   0  0  0  0  0  0  0  0  0  0  0  0
  -17.2217   -8.1269    8.3504 C   0  0  0  0  0  0  0  0  0  0  0  0
  -18.1840   -7.9166    9.3756 C   0  0  0  0  0  0  0  0  0  0  0  0
  -17.8694   -8.2563   10.7208 C   0  0  0  0  0  0  0  0  0  0  0  0
  -16.5966   -8.8041   11.0371 C   0  0  0  0  0  0  0  0  0  0  0  0
  -15.6383   -9.0141   10.0110 C   0  0  0  0  0  0  0  0  0  0  0  0
  -15.9507   -8.6745    8.6683 C   0  0  0  0  0  0  0  0  0  0  0  0
  2  4  1  0  0  0  0
  3  5  1  0  0  0  0
  4  7  1  0  0  0  0
  6  1  1  0  0  0  0
  7 10  1  0  0  0  0
  8  6  1  0  0  0  0
  8 11  1  0  0  0  0
  9  6  1  0  0  0  0
 10 13  1  0  0  0  0
 11 14  1  0  0  0  0
 12  9  1  0  0  0  0
 14 12  1  0  0  0  0
 14 15  1  0  0  0  0
 15 16  1  0  0  0  0
 15 17  1  0  0  0  0
 18  2  1  0  0  0  0
 18 23  2  0  0  0  0
 19  1  1  0  0  0  0
 19 18  1  0  0  0  0
 20 19  2  0  0  0  0
 21  3  1  0  0  0  0
 21 20  1  0  0  0  0
 22 21  2  0  0  0  0
 22 23  1  0  0  0  0
M  END
>  <CHROM.1>
-172.87506422,-70.26772153,-73.27871990,-81.21709296,-179.45390052,-178.09401614
-105.73702863,105.45486671,-110.53438090,-89.13754175,-85.31536132,-19.16994518
-7.54184350,9.18346038,2.44745528,-0.33081165,1.45736654

>  <Name>
1uui_lig

>  <RI>
0

>  <Rbt.Current_Directory>
/home/itssahil/PROJECTS/Mol_Feturizer/New_Systems/rnas/1uui

>  <Rbt.Executable>
rbdock ($Id: //depot/dev/client3/rdock/2013.1/src/exe/rbdock.cxx#4 $)

>  <Rbt.Library>
libRbt.so (2013.1, Build901 2013/11/27)

>  <Rbt.Parameter_File>
/export/apps/rDock/src/rDock_2013.1_src/data/scripts/dock_solv.prm

>  <Rbt.Receptor>
prm/blind_docking_80.prm

>  <SCORE>
-35.9772

>  <SCORE.INTER>
-30.1934

>  <SCORE.INTER.CONST>
1

>  <SCORE.INTER.POLAR>
-2.78646

>  <SCORE.INTER.ROT>
10

>  <SCORE.INTER.SOLV>
7.60761

>  <SCORE.INTER.VDW>
-23.6433

>  <SCORE.INTER.norm>
-1.31276

>  <SCORE.INTRA>
-6.01593

>  <SCORE.INTRA.DIHEDRAL>
-7.41651

>  <SCORE.INTRA.DIHEDRAL.0>
23.4151

>  <SCORE.INTRA.POLAR>
0

>  <SCORE.INTRA.POLAR.0>
0

>  <SCORE.INTRA.REPUL>
0

>  <SCORE.INTRA.REPUL.0>
0

>  <SCORE.INTRA.SOLV>
0.224295

>  <SCORE.INTRA.SOLV.lig_0>
-17.3568

>  <SCORE.INTRA.VDW>
-2.41982

>  <SCORE.INTRA.VDW.0>
1.0768

>  <SCORE.INTRA.norm>
-0.261562

>  <SCORE.RESTR>
0.23215

>  <SCORE.RESTR.CAVITY>
0.23215

>  <SCORE.RESTR.norm>
0.0100935

>  <SCORE.SYSTEM>
0

>  <SCORE.SYSTEM.CONST>
0

>  <SCORE.SYSTEM.DIHEDRAL>
0

>  <SCORE.SYSTEM.SOLV>
0

>  <SCORE.SYSTEM.norm>
0

>  <SCORE.heavy>
23

>  <SCORE.norm>
-1.56422

>  <RMSD>
14.501

$$$$
1uui_lig
 OpenBabel11021811413D
libRbt.so/2013.1/901 2013/11/27
 23 24  0  0  0  0  0  0  0  0999 V2000
  -19.6870   -7.0263    8.8312 C   0  0  0  0  0  0  0  0  0  0  0  0
  -17.6444   -7.4732    6.8115 O   0  0  0  0  0  0  0  0  0  0  0  0
  -16.5056   -9.0944   12.1574 O   0  0  0  0  0  0  0  0  0  0  0  0
  -18.4640   -8.4527    6.1611 C   0  0  0  0  0  0  0  0  0  0  0  0
  -16.1035   -7.9562   12.9235 C   0  0  0  0  0  0  0  0  0  0  0  0
  -19.6692   -5.5766    9.2152 N   0  0  0  0  0  0  0  0  0  0  0  0
  -17.6624   -9.1069    5.0348 C   0  0  0  0  0  0  0  0  0  0  0  0
  -19.5775   -5.4105   10.6912 C   0  0  0  0  0  0  0  0  0  0  0  0
  -20.8820   -4.8789    8.7122 C   0  0  0  0  0  0  0  0  0  0  0  0
  -18.4368  -10.3000    4.4656 C   0  0  0  0  0  0  0  0  0  0  0  0
  -20.7782   -6.0415   11.4166 C   0  0  0  0  0  0  0  0  0  0  0  0
  -22.1700   -5.5019    9.2770 C   0  0  0  0  0  0  0  0  0  0  0  0
  -19.5195   -9.8105    3.5833 N   0  0  0  0  0  0  0  0  0  0  0  0
  -21.9030   -6.3513   10.4793 N   0  0  0  0  0  0  0  0  0  0  0  0
  -22.8696   -7.2969   10.8690 C   0  0  0  0  0  0  0  0  0  0  0  0
  -23.9832   -7.5084   10.1111 N   0  0  0  0  0  0  0  0  0  0  0  0
  -22.7826   -7.9241   12.0767 N   0  0  0  0  0  0  0  0  0  0  0  0
  -17.3624   -7.8827    8.1527 C   0  0  0  0  0  0  0  0  0  0  0  0
  -18.3304   -7.6840    9.1749 C   0  0  0  0  0  0  0  0  0  0  0  0
  -18.0437   -8.0888   10.5082 C   0  0  0  0  0  0  0  0  0  0  0  0
  -16.7929   -8.6898   10.8158 C   0  0  0  0  0  0  0  0  0  0  0  0
  -15.8289   -8.8879    9.7927 C   0  0  0  0  0  0  0  0  0  0  0  0
  -16.1135   -8.4834    8.4618 C   0  0  0  0  0  0  0  0  0  0  0  0
  2  4  1  0  0  0  0
  3  5  1  0  0  0  0
  4  7  1  0  0  0  0
  6  1  1  0  0  0  0
  7 10  1  0  0  0  0
  8  6  1  0  0  0  0
  8 11  1  0  0  0  0
  9  6  1  0  0  0  0
 10 13  1  0  0  0  0
 11 14  1  0  0  0  0
 12  9  1  0  0  0  0
 14 12  1  0  0  0  0
 14 15  1  0  0  0  0
 15 16  1  0  0  0  0
 15 17  1  0  0  0  0
 18  2  1  0  0  0  0
 18 23  2  0  0  0  0
 19  1  1  0  0  0  0
 19 18  1  0  0  0  0
 20 19  2  0  0  0  0
 21  3  1  0  0  0  0
 21 20  1  0  0  0  0
 22 21  2  0  0  0  0
 22 23  1  0  0  0  0
M  END
>  <CHROM.1>
-113.41215079,171.38874765,-66.30794125,76.95866064,72.39616830,173.14598560
89.79509616,14.68985145,-80.17178273,-99.90530430,-80.13917003,-19.24498298
-7.63528616,9.09104935,2.21580326,-0.30974014,1.34127324

>  <Name>
1uui_lig

>  <RI>
0

>  <Rbt.Current_Directory>
/home/itssahil/PROJECTS/Mol_Feturizer/New_Systems/rnas/1uui

>  <Rbt.Executable>
rbdock ($Id: //depot/dev/client3/rdock/2013.1/src/exe/rbdock.cxx#4 $)

>  <Rbt.Library>
libRbt.so (2013.1, Build901 2013/11/27)

>  <Rbt.Parameter_File>
/export/apps/rDock/src/rDock_2013.1_src/data/scripts/dock_solv.prm

>  <Rbt.Receptor>
prm/blind_docking_80.prm

>  <SCORE>
-33.103

>  <SCORE.INTER>
-31.3917

>  <SCORE.INTER.CONST>
1

>  <SCORE.INTER.POLAR>
-3.28405

>  <SCORE.INTER.ROT>
10

>  <SCORE.INTER.SOLV>
7.8952

>  <SCORE.INTER.VDW>
-22.8794

>  <SCORE.INTER.norm>
-1.36486

>  <SCORE.INTRA>
-1.79626

>  <SCORE.INTRA.DIHEDRAL>
-0.996561

>  <SCORE.INTRA.DIHEDRAL.0>
23.4151

>  <SCORE.INTRA.POLAR>
0

>  <SCORE.INTRA.POLAR.0>
0

>  <SCORE.INTRA.REPUL>
0

>  <SCORE.INTRA.REPUL.0>
0

>  <SCORE.INTRA.SOLV>
0.136505

>  <SCORE.INTRA.SOLV.lig_0>
-17.3568

>  <SCORE.INTRA.VDW>
-1.36623

>  <SCORE.INTRA.VDW.0>
1.0768

>  <SCORE.INTRA.norm>
-0.0780983

>  <SCORE.RESTR>
0.0849487

>  <SCORE.RESTR.CAVITY>
0.0849487

>  <SCORE.RESTR.norm>
0.00369342

>  <SCORE.SYSTEM>
0

>  <SCORE.SYSTEM.CONST>
0

>  <SCORE.SYSTEM.DIHEDRAL>
0

>  <SCORE.SYSTEM.SOLV>
0

>  <SCORE.SYSTEM.norm>
0

>  <SCORE.heavy>
23

>  <SCORE.norm>
-1.43926

>  <RMSD>
14.507

$$$$
1uui_lig
 OpenBabel11021811413D
libRbt.so/2013.1/901 2013/11/27
 23 24  0  0  0  0  0  0  0  0999 V2000
  -19.7235   -6.9993   10.4979 C   0  0  0  0  0  0  0  0  0  0  0  0
  -18.6050   -6.9465    7.8151 O   0  0  0  0  0  0  0  0  0  0  0  0
  -15.4571   -9.2562   11.9696 O   0  0  0  0  0  0  0  0  0  0  0  0
  -18.1718   -7.4385    6.5406 C   0  0  0  0  0  0  0  0  0  0  0  0
  -15.5438   -8.4417   13.1414 C   0  0  0  0  0  0  0  0  0  0  0  0
  -19.6062   -5.8491   11.4532 N   0  0  0  0  0  0  0  0  0  0  0  0
  -18.6962   -8.8626    6.3500 C   0  0  0  0  0  0  0  0  0  0  0  0
  -20.6469   -5.9210   12.5146 C   0  0  0  0  0  0  0  0  0  0  0  0
  -19.7168   -4.5506   10.7375 C   0  0  0  0  0  0  0  0  0  0  0  0
  -18.4012   -9.3430    4.9255 C   0  0  0  0  0  0  0  0  0  0  0  0
  -22.0687   -5.8626   11.9307 C   0  0  0  0  0  0  0  0  0  0  0  0
  -21.0624   -4.4204   10.0036 C   0  0  0  0  0  0  0  0  0  0  0  0
  -16.9406   -9.3161    4.6878 N   0  0  0  0  0  0  0  0  0  0  0  0
  -22.0743   -5.4005   10.5073 N   0  0  0  0  0  0  0  0  0  0  0  0
  -23.1908   -5.6953    9.7030 C   0  0  0  0  0  0  0  0  0  0  0  0
  -23.8419   -4.7076    9.0250 N   0  0  0  0  0  0  0  0  0  0  0  0
  -23.7276   -6.9488    9.6895 N   0  0  0  0  0  0  0  0  0  0  0  0
  -17.8186   -7.5290    8.8583 C   0  0  0  0  0  0  0  0  0  0  0  0
  -18.3233   -7.5769   10.1866 C   0  0  0  0  0  0  0  0  0  0  0  0
  -17.5357   -8.1531   11.2217 C   0  0  0  0  0  0  0  0  0  0  0  0
  -16.2484   -8.6789   10.9271 C   0  0  0  0  0  0  0  0  0  0  0  0
  -15.7477   -8.6307    9.5996 C   0  0  0  0  0  0  0  0  0  0  0  0
  -16.5324   -8.0549    8.5659 C   0  0  0  0  0  0  0  0  0  0  0  0
  2  4  1  0  0  0  0
  3  5  1  0  0  0  0
  4  7  1  0  0  0  0
  6  1  1  0  0  0  0
  7 10  1  0  0  0  0
  8  6  1  0  0  0  0
  8 11  1  0  0  0  0
  9  6  1  0  0  0  0
 10 13  1  0  0  0  0
 11 14  1  0  0  0  0
 12  9  1  0  0  0  0
 14 12  1  0  0  0  0
 14 15  1  0  0  0  0
 15 16  1  0  0  0  0
 15 17  1  0  0  0  0
 18  2  1  0  0  0  0
 18 23  2  0  0  0  0
 19  1  1  0  0  0  0
 19 18  1  0  0  0  0
 20 19  2  0  0  0  0
 21  3  1  0  0  0  0
 21 20  1  0  0  0  0
 22 21  2  0  0  0  0
 22 23  1  0  0  0  0
M  END
>  <CHROM.1>
76.20195716,172.72342004,-136.43518309,59.52119235,-174.14774516,126.88667956
-49.18241922,-77.39280436,-158.16260436,-117.05469530,-42.49932860,-19.15674731
-7.15142122,9.56394475,-2.74370318,0.45468428,-1.79581552

>  <Name>
1uui_lig

>  <RI>
0

>  <Rbt.Current_Directory>
/home/itssahil/PROJECTS/Mol_Feturizer/New_Systems/rnas/1uui

>  <Rbt.Executable>
rbdock ($Id: //depot/dev/client3/rdock/2013.1/src/exe/rbdock.cxx#4 $)

>  <Rbt.Library>
libRbt.so (2013.1, Build901 2013/11/27)

>  <Rbt.Parameter_File>
/export/apps/rDock/src/rDock_2013.1_src/data/scripts/dock_solv.prm

>  <Rbt.Receptor>
prm/blind_docking_100.prm

>  <SCORE>
-29.9039

>  <SCORE.INTER>
-28.8284

>  <SCORE.INTER.CONST>
1

>  <SCORE.INTER.POLAR>
-3.28423

>  <SCORE.INTER.ROT>
10

>  <SCORE.INTER.SOLV>
12.417

>  <SCORE.INTER.VDW>
-22.6772

>  <SCORE.INTER.norm>
-1.25341

>  <SCORE.INTRA>
-1.92455

>  <SCORE.INTRA.DIHEDRAL>
-11.8928

>  <SCORE.INTRA.DIHEDRAL.0>
23.4151

>  <SCORE.INTRA.POLAR>
0

>  <SCORE.INTRA.POLAR.0>
0

>  <SCORE.INTRA.REPUL>
0

>  <SCORE.INTRA.REPUL.0>
0

>  <SCORE.INTRA.SOLV>
0.146062

>  <SCORE.INTRA.SOLV.lig_0>
-17.3568

>  <SCORE.INTRA.VDW>
3.9488

>  <SCORE.INTRA.VDW.0>
1.0768

>  <SCORE.INTRA.norm>
-0.0836762

>  <SCORE.RESTR>
0.849139

>  <SCORE.RESTR.CAVITY>
0.849139

>  <SCORE.RESTR.norm>
0.0369191

>  <SCORE.SYSTEM>
0

>  <SCORE.SYSTEM.CONST>
0

>  <SCORE.SYSTEM.DIHEDRAL>
0

>  <SCORE.SYSTEM.SOLV>
0

>  <SCORE.SYSTEM.norm>
0

>  <SCORE.heavy>
23

>  <SCORE.norm>
-1.30017

>  <RMSD>
14.509

$$$$
1uui_lig
 OpenBabel11021811413D
libRbt.so/2013.1/901 2013/11/27
 23 24  0  0  0  0  0  0  0  0999 V2000
  -20.0811   -7.1882    9.0433 C   0  0  0  0  0  0  0  0  0  0  0  0
  -18.2632   -7.4421    6.7889 O   0  0  0  0  0  0  0  0  0  0  0  0
  -16.3629   -9.0006   11.9333 O   0  0  0  0  0  0  0  0  0  0  0  0
  -18.0000   -8.4767    5.8327 C   0  0  0  0  0  0  0  0  0  0  0  0
  -16.2658   -7.8478   12.7734 C   0  0  0  0  0  0  0  0  0  0  0  0
  -20.0515   -5.7048    8.8240 N   0  0  0  0  0  0  0  0  0  0  0  0
  -18.9584   -9.6424    6.0810 C   0  0  0  0  0  0  0  0  0  0  0  0
  -19.5059   -4.9945   10.0125 C   0  0  0  0  0  0  0  0  0  0  0  0
  -21.4106   -5.1860    8.5171 C   0  0  0  0  0  0  0  0  0  0  0  0
  -18.8152  -10.6844    4.9670 C   0  0  0  0  0  0  0  0  0  0  0  0
  -20.3604   -5.2351   11.2686 C   0  0  0  0  0  0  0  0  0  0  0  0
  -22.3996   -5.4755    9.6591 C   0  0  0  0  0  0  0  0  0  0  0  0
  -19.4653  -10.1833    3.7355 N   0  0  0  0  0  0  0  0  0  0  0  0
  -21.6988   -5.8163   10.9363 N   0  0  0  0  0  0  0  0  0  0  0  0
  -22.4157   -6.4880   11.9440 C   0  0  0  0  0  0  0  0  0  0  0  0
  -23.5509   -7.1824   11.6472 N   0  0  0  0  0  0  0  0  0  0  0  0
  -22.0688   -6.3489   13.2555 N   0  0  0  0  0  0  0  0  0  0  0  0
  -17.7899   -7.8362    8.0800 C   0  0  0  0  0  0  0  0  0  0  0  0
  -18.6425   -7.7294    9.2126 C   0  0  0  0  0  0  0  0  0  0  0  0
  -18.1659   -8.1183   10.4954 C   0  0  0  0  0  0  0  0  0  0  0  0
  -16.8411   -8.6118   10.6424 C   0  0  0  0  0  0  0  0  0  0  0  0
  -15.9925   -8.7184    9.5093 C   0  0  0  0  0  0  0  0  0  0  0  0
  -16.4667   -8.3296    8.2288 C   0  0  0  0  0  0  0  0  0  0  0  0
  2  4  1  0  0  0  0
  3  5  1  0  0  0  0
  4  7  1  0  0  0  0
  6  1  1  0  0  0  0
  7 10  1  0  0  0  0
  8  6  1  0  0  0  0
  8 11  1  0  0  0  0
  9  6  1  0  0  0  0
 10 13  1  0  0  0  0
 11 14  1  0  0  0  0
 12  9  1  0  0  0  0
 14 12  1  0  0  0  0
 14 15  1  0  0  0  0
 15 16  1  0  0  0  0
 15 17  1  0  0  0  0
 18  2  1  0  0  0  0
 18 23  2  0  0  0  0
 19  1  1  0  0  0  0
 19 18  1  0  0  0  0
 20 19  2  0  0  0  0
 21  3  1  0  0  0  0
 21 20  1  0  0  0  0
 22 21  2  0  0  0  0
 22 23  1  0  0  0  0
M  END
>  <CHROM.1>
72.89832400,173.00757317,-63.81677156,-74.82070099,-144.81633965,-171.30830525
-59.99096940,-146.84257966,-130.15012917,-73.97645237,-66.74082892,-19.34195195
-7.49307934,9.26285360,2.10029201,-0.40305497,1.27336402

>  <Name>
1uui_lig

>  <RI>
0

>  <Rbt.Current_Directory>
/home/itssahil/PROJECTS/Mol_Feturizer/New_Systems/rnas/1uui

>  <Rbt.Executable>
rbdock ($Id: //depot/dev/client3/rdock/2013.1/src/exe/rbdock.cxx#4 $)

>  <Rbt.Library>
libRbt.so (2013.1, Build901 2013/11/27)

>  <Rbt.Parameter_File>
/export/apps/rDock/src/rDock_2013.1_src/data/scripts/dock_solv.prm

>  <Rbt.Receptor>
prm/blind_docking_80.prm

>  <SCORE>
-28.3392

>  <SCORE.INTER>
-24.1962

>  <SCORE.INTER.CONST>
1

>  <SCORE.INTER.POLAR>
-2.52709

>  <SCORE.INTER.ROT>
10

>  <SCORE.INTER.SOLV>
7.31334

>  <SCORE.INTER.VDW>
-20.4116

>  <SCORE.INTER.norm>
-1.05201

>  <SCORE.INTRA>
-4.16418

>  <SCORE.INTRA.DIHEDRAL>
-8.04922

>  <SCORE.INTRA.DIHEDRAL.0>
23.4151

>  <SCORE.INTRA.POLAR>
0

>  <SCORE.INTRA.POLAR.0>
0

>  <SCORE.INTRA.REPUL>
0

>  <SCORE.INTRA.REPUL.0>
0

>  <SCORE.INTRA.SOLV>
0.236151

>  <SCORE.INTRA.SOLV.lig_0>
-17.3568

>  <SCORE.INTRA.VDW>
-0.25765

>  <SCORE.INTRA.VDW.0>
1.0768

>  <SCORE.INTRA.norm>
-0.181051

>  <SCORE.RESTR>
0.0212132

>  <SCORE.RESTR.CAVITY>
0.0212132

>  <SCORE.RESTR.norm>
0.000922313

>  <SCORE.SYSTEM>
0

>  <SCORE.SYSTEM.CONST>
0

>  <SCORE.SYSTEM.DIHEDRAL>
0

>  <SCORE.SYSTEM.SOLV>
0

>  <SCORE.SYSTEM.norm>
0

>  <SCORE.heavy>
23

>  <SCORE.norm>
-1.23214

>  <RMSD>
14.517

$$$$
1uui_lig
 OpenBabel11021811413D
libRbt.so/2013.1/901 2013/11/27
 23 24  0  0  0  0  0  0  0  0999 V2000
  -19.7701   -7.0612    8.6162 C   0  0  0  0  0  0  0  0  0  0  0  0
  -18.5177   -8.4113    6.3668 O   0  0  0  0  0  0  0  0  0  0  0  0
  -15.7546   -8.4191   11.3536 O   0  0  0  0  0  0  0  0  0  0  0  0
  -18.8657   -9.7506    5.9936 C   0  0  0  0  0  0  0  0  0  0  0  0
  -16.5321   -9.1139   12.3318 C   0  0  0  0  0  0  0  0  0  0  0  0
  -19.6259   -5.5974    8.9093 N   0  0  0  0  0  0  0  0  0  0  0  0
  -19.5998   -9.7209    4.6521 C   0  0  0  0  0  0  0  0  0  0  0  0
  -19.4186   -5.3561   10.3631 C   0  0  0  0  0  0  0  0  0  0  0  0
  -20.8206   -4.8428    8.4469 C   0  0  0  0  0  0  0  0  0  0  0  0
  -19.6043  -11.1194    4.0266 C   0  0  0  0  0  0  0  0  0  0  0  0
  -20.6052   -5.8567   11.2041 C   0  0  0  0  0  0  0  0  0  0  0  0
  -22.1050   -5.3381    9.1333 C   0  0  0  0  0  0  0  0  0  0  0  0
  -18.2712  -11.4076    3.4517 N   0  0  0  0  0  0  0  0  0  0  0  0
  -21.8122   -6.1360   10.3645 N   0  0  0  0  0  0  0  0  0  0  0  0
  -22.8113   -6.9858   10.8747 C   0  0  0  0  0  0  0  0  0  0  0  0
  -23.8045   -7.4567   10.0681 N   0  0  0  0  0  0  0  0  0  0  0  0
  -22.8862   -7.2483   12.2107 N   0  0  0  0  0  0  0  0  0  0  0  0
  -17.8281   -8.4153    7.6200 C   0  0  0  0  0  0  0  0  0  0  0  0
  -18.4008   -7.7674    8.7485 C   0  0  0  0  0  0  0  0  0  0  0  0
  -17.7092   -7.7701    9.9916 C   0  0  0  0  0  0  0  0  0  0  0  0
  -16.4495   -8.4190   10.1033 C   0  0  0  0  0  0  0  0  0  0  0  0
  -15.8808   -9.0662    8.9750 C   0  0  0  0  0  0  0  0  0  0  0  0
  -16.5697   -9.0632    7.7336 C   0  0  0  0  0  0  0  0  0  0  0  0
  2  4  1  0  0  0  0
  3  5  1  0  0  0  0
  4  7  1  0  0  0  0
  6  1  1  0  0  0  0
  7 10  1  0  0  0  0
  8  6  1  0  0  0  0
  8 11  1  0  0  0  0
  9  6  1  0  0  0  0
 10 13  1  0  0  0  0
 11 14  1  0  0  0  0
 12  9  1  0  0  0  0
 14 12  1  0  0  0  0
 14 15  1  0  0  0  0
 15 16  1  0  0  0  0
 15 17  1  0  0  0  0
 18  2  1  0  0  0  0
 18 23  2  0  0  0  0
 19  1  1  0  0  0  0
 19 18  1  0  0  0  0
 20 19  2  0  0  0  0
 21  3  1  0  0  0  0
 21 20  1  0  0  0  0
 22 21  2  0  0  0  0
 22 23  1  0  0  0  0
M  END
>  <CHROM.1>
-179.94918476,162.77979277,-72.89051272,-76.32878268,63.69843430,-168.34058232
79.26670425,102.00946027,-116.53148979,-118.61429747,62.82803806,-19.33748301
-7.86102255,8.74467367,2.09146942,-0.33342503,1.13088694

>  <Name>
1uui_lig

>  <RI>
0

>  <Rbt.Current_Directory>
/home/itssahil/PROJECTS/Mol_Feturizer/New_Systems/rnas/1uui

>  <Rbt.Executable>
rbdock ($Id: //depot/dev/client3/rdock/2013.1/src/exe/rbdock.cxx#4 $)

>  <Rbt.Library>
libRbt.so (2013.1, Build901 2013/11/27)

>  <Rbt.Parameter_File>
/export/apps/rDock/src/rDock_2013.1_src/data/scripts/dock_solv.prm

>  <Rbt.Receptor>
prm/blind_docking_100.prm

>  <SCORE>
-39.1825

>  <SCORE.INTER>
-34.0752

>  <SCORE.INTER.CONST>
1

>  <SCORE.INTER.POLAR>
-3.98206

>  <SCORE.INTER.ROT>
10

>  <SCORE.INTER.SOLV>
7.7091

>  <SCORE.INTER.VDW>
-22.2796

>  <SCORE.INTER.norm>
-1.48153

>  <SCORE.INTRA>
-5.11376

>  <SCORE.INTRA.DIHEDRAL>
-8.8754

>  <SCORE.INTRA.DIHEDRAL.0>
23.4151

>  <SCORE.INTRA.POLAR>
0

>  <SCORE.INTRA.POLAR.0>
0

>  <SCORE.INTRA.REPUL>
0

>  <SCORE.INTRA.REPUL.0>
0

>  <SCORE.INTRA.SOLV>
0.0539335

>  <SCORE.INTRA.SOLV.lig_0>
-17.3568

>  <SCORE.INTRA.VDW>
-0.703031

>  <SCORE.INTRA.VDW.0>
1.0768

>  <SCORE.INTRA.norm>
-0.222338

>  <SCORE.RESTR>
0.00650462

>  <SCORE.RESTR.CAVITY>
0.00650462

>  <SCORE.RESTR.norm>
0.000282809

>  <SCORE.SYSTEM>
0

>  <SCORE.SYSTEM.CONST>
0

>  <SCORE.SYSTEM.DIHEDRAL>
0

>  <SCORE.SYSTEM.SOLV>
0

>  <SCORE.SYSTEM.norm>
0

>  <SCORE.heavy>
23

>  <SCORE.norm>
-1.70359

>  <RMSD>
14.527

$$$$
1uui_lig
 OpenBabel11021811413D
libRbt.so/2013.1/901 2013/11/27
 23 24  0  0  0  0  0  0  0  0999 V2000
  -19.9678   -8.1730    8.8872 C   0  0  0  0  0  0  0  0  0  0  0  0
  -17.8275  -10.1064    9.2512 O   0  0  0  0  0  0  0  0  0  0  0  0
  -20.5153  -10.0215    4.2240 O   0  0  0  0  0  0  0  0  0  0  0  0
  -16.6303   -9.3213    9.1851 C   0  0  0  0  0  0  0  0  0  0  0  0
  -20.0445   -8.9176    3.4469 C   0  0  0  0  0  0  0  0  0  0  0  0
  -20.2329   -6.8131    8.3127 N   0  0  0  0  0  0  0  0  0  0  0  0
  -16.4298   -8.6021   10.5199 C   0  0  0  0  0  0  0  0  0  0  0  0
  -19.7230   -5.7401    9.2090 C   0  0  0  0  0  0  0  0  0  0  0  0
  -21.6865   -6.6112    8.0747 C   0  0  0  0  0  0  0  0  0  0  0  0
  -17.5314   -7.5568   10.7221 C   0  0  0  0  0  0  0  0  0  0  0  0
  -20.4014   -5.7729   10.5891 C   0  0  0  0  0  0  0  0  0  0  0  0
  -22.4977   -6.7415    9.3752 C   0  0  0  0  0  0  0  0  0  0  0  0
  -17.3807   -6.9320   12.0552 N   0  0  0  0  0  0  0  0  0  0  0  0
  -21.6337   -6.6220   10.5907 N   0  0  0  0  0  0  0  0  0  0  0  0
  -22.1201   -7.1091   11.8181 C   0  0  0  0  0  0  0  0  0  0  0  0
  -22.2620   -6.2791   12.8905 N   0  0  0  0  0  0  0  0  0  0  0  0
  -22.3323   -8.4434   12.0027 N   0  0  0  0  0  0  0  0  0  0  0  0
  -18.5007  -10.0806    7.9894 C   0  0  0  0  0  0  0  0  0  0  0  0
  -19.5544   -9.1530    7.7648 C   0  0  0  0  0  0  0  0  0  0  0  0
  -20.2241   -9.1341    6.5097 C   0  0  0  0  0  0  0  0  0  0  0  0
  -19.8396  -10.0406    5.4847 C   0  0  0  0  0  0  0  0  0  0  0  0
  -18.7862  -10.9649    5.7116 C   0  0  0  0  0  0  0  0  0  0  0  0
  -18.1179  -10.9853    6.9640 C   0  0  0  0  0  0  0  0  0  0  0  0
  2  4  1  0  0  0  0
  3  5  1  0  0  0  0
  4  7  1  0  0  0  0
  6  1  1  0  0  0  0
  7 10  1  0  0  0  0
  8  6  1  0  0  0  0
  8 11  1  0  0  0  0
  9  6  1  0  0  0  0
 10 13  1  0  0  0  0
 11 14  1  0  0  0  0
 12  9  1  0  0  0  0
 14 12  1  0  0  0  0
 14 15  1  0  0  0  0
 15 16  1  0  0  0  0
 15 17  1  0  0  0  0
 18  2  1  0  0  0  0
 18 23  2  0  0  0  0
 19  1  1  0  0  0  0
 19 18  1  0  0  0  0
 20 19  2  0  0  0  0
 21  3  1  0  0  0  0
 21 20  1  0  0  0  0
 22 21  2  0  0  0  0
 22 23  1  0  0  0  0
M  END
>  <CHROM.1>
143.21771064,-67.16181769,-140.76601957,176.20732122,-80.07575686,47.85502579
92.45894918,87.75735331,-95.86702123,138.70476531,77.41204433,-19.76077576
-8.21816581,8.84402487,1.80587887,-0.39967733,1.17341158

>  <Name>
1uui_lig

>  <RI>
0

>  <Rbt.Current_Directory>
/home/itssahil/PROJECTS/Mol_Feturizer/New_Systems/rnas/1uui

>  <Rbt.Executable>
rbdock ($Id: //depot/dev/client3/rdock/2013.1/src/exe/rbdock.cxx#4 $)

>  <Rbt.Library>
libRbt.so (2013.1, Build901 2013/11/27)

>  <Rbt.Parameter_File>
/export/apps/rDock/src/rDock_2013.1_src/data/scripts/dock_solv.prm

>  <Rbt.Receptor>
prm/blind_docking_80.prm

>  <SCORE>
-22.3694

>  <SCORE.INTER>
-19.602

>  <SCORE.INTER.CONST>
1

>  <SCORE.INTER.POLAR>
-3.08726

>  <SCORE.INTER.ROT>
10

>  <SCORE.INTER.SOLV>
5.92945

>  <SCORE.INTER.VDW>
-15.0203

>  <SCORE.INTER.norm>
-0.85226

>  <SCORE.INTRA>
-3.44874

>  <SCORE.INTRA.DIHEDRAL>
-1.24865

>  <SCORE.INTRA.DIHEDRAL.0>
23.4151

>  <SCORE.INTRA.POLAR>
0

>  <SCORE.INTRA.POLAR.0>
0

>  <SCORE.INTRA.REPUL>
0

>  <SCORE.INTRA.REPUL.0>
0

>  <SCORE.INTRA.SOLV>
0.350208

>  <SCORE.INTRA.SOLV.lig_0>
-17.3568

>  <SCORE.INTRA.VDW>
-2.99952

>  <SCORE.INTRA.VDW.0>
1.0768

>  <SCORE.INTRA.norm>
-0.149945

>  <SCORE.RESTR>
0.681346

>  <SCORE.RESTR.CAVITY>
0.681346

>  <SCORE.RESTR.norm>
0.0296237

>  <SCORE.SYSTEM>
0

>  <SCORE.SYSTEM.CONST>
0

>  <SCORE.SYSTEM.DIHEDRAL>
0

>  <SCORE.SYSTEM.SOLV>
0

>  <SCORE.SYSTEM.norm>
0

>  <SCORE.heavy>
23

>  <SCORE.norm>
-0.972582

>  <RMSD>
14.531

$$$$
1uui_lig
 OpenBabel11021811413D
libRbt.so/2013.1/901 2013/11/27
 23 24  0  0  0  0  0  0  0  0999 V2000
  -19.0596   -6.5212    9.3398 C   0  0  0  0  0  0  0  0  0  0  0  0
  -17.8606   -7.8207    7.0321 O   0  0  0  0  0  0  0  0  0  0  0  0
  -15.4588   -8.6936   12.1285 O   0  0  0  0  0  0  0  0  0  0  0  0
  -18.2505   -9.0711    6.4504 C   0  0  0  0  0  0  0  0  0  0  0  0
  -16.4687   -9.0290   13.0834 C   0  0  0  0  0  0  0  0  0  0  0  0
  -19.1189   -5.5570   10.4871 N   0  0  0  0  0  0  0  0  0  0  0  0
  -19.0215   -8.8019    5.1572 C   0  0  0  0  0  0  0  0  0  0  0  0
  -19.4392   -6.2547   11.7620 C   0  0  0  0  0  0  0  0  0  0  0  0
  -20.1281   -4.4944   10.2363 C   0  0  0  0  0  0  0  0  0  0  0  0
  -19.1697  -10.0994    4.3561 C   0  0  0  0  0  0  0  0  0  0  0  0
  -20.8076   -6.9548   11.7064 C   0  0  0  0  0  0  0  0  0  0  0  0
  -21.5355   -5.0836   10.0404 C   0  0  0  0  0  0  0  0  0  0  0  0
  -17.8361  -10.5569    3.9060 N   0  0  0  0  0  0  0  0  0  0  0  0
  -21.6325   -6.4875   10.5485 N   0  0  0  0  0  0  0  0  0  0  0  0
  -22.6893   -7.2998   10.0970 C   0  0  0  0  0  0  0  0  0  0  0  0
  -22.6664   -8.6483   10.2967 N   0  0  0  0  0  0  0  0  0  0  0  0
  -23.6917   -6.7776    9.3341 N   0  0  0  0  0  0  0  0  0  0  0  0
  -17.2620   -8.0414    8.3124 C   0  0  0  0  0  0  0  0  0  0  0  0
  -17.8126   -7.4264    9.4699 C   0  0  0  0  0  0  0  0  0  0  0  0
  -17.2112   -7.6452   10.7405 C   0  0  0  0  0  0  0  0  0  0  0  0
  -16.0634   -8.4763   10.8505 C   0  0  0  0  0  0  0  0  0  0  0  0
  -15.5166   -9.0900    9.6930 C   0  0  0  0  0  0  0  0  0  0  0  0
  -16.1154   -8.8715    8.4243 C   0  0  0  0  0  0  0  0  0  0  0  0
  2  4  1  0  0  0  0
  3  5  1  0  0  0  0
  4  7  1  0  0  0  0
  6  1  1  0  0  0  0
  7 10  1  0  0  0  0
  8  6  1  0  0  0  0
  8 11  1  0  0  0  0
  9  6  1  0  0  0  0
 10 13  1  0  0  0  0
 11 14  1  0  0  0  0
 12  9  1  0  0  0  0
 14 12  1  0  0  0  0
 14 15  1  0  0  0  0
 15 16  1  0  0  0  0
 15 17  1  0  0  0  0
 18  2  1  0  0  0  0
 18 23  2  0  0  0  0
 19  1  1  0  0  0  0
 19 18  1  0  0  0  0
 20 19  2  0  0  0  0
 21  3  1  0  0  0  0
 21 20  1  0  0  0  0
 22 21  2  0  0  0  0
 22 23  1  0  0  0  0
M  END
>  <CHROM.1>
173.92388385,167.09918485,-70.11724000,-65.62889440,79.25010649,-25.82463926
-87.56720969,84.21068653,-122.00586263,-156.16162385,47.83783319,-18.95694841
-7.74662205,9.24391511,2.16220982,-0.32817671,1.21585134

>  <Name>
1uui_lig

>  <RI>
0

>  <Rbt.Current_Directory>
/home/itssahil/PROJECTS/Mol_Feturizer/New_Systems/rnas/1uui

>  <Rbt.Executable>
rbdock ($Id: //depot/dev/client3/rdock/2013.1/src/exe/rbdock.cxx#4 $)

>  <Rbt.Library>
libRbt.so (2013.1, Build901 2013/11/27)

>  <Rbt.Parameter_File>
/export/apps/rDock/src/rDock_2013.1_src/data/scripts/dock_solv.prm

>  <Rbt.Receptor>
prm/blind_docking_80.prm

>  <SCORE>
-33.6237

>  <SCORE.INTER>
-31.2261

>  <SCORE.INTER.CONST>
1

>  <SCORE.INTER.POLAR>
-3.80822

>  <SCORE.INTER.ROT>
10

>  <SCORE.INTER.SOLV>
10.672

>  <SCORE.INTER.VDW>
-21.9473

>  <SCORE.INTER.norm>
-1.35766

>  <SCORE.INTRA>
-2.99192

>  <SCORE.INTRA.DIHEDRAL>
-10.8693

>  <SCORE.INTRA.DIHEDRAL.0>
23.4151

>  <SCORE.INTRA.POLAR>
0

>  <SCORE.INTRA.POLAR.0>
0

>  <SCORE.INTRA.REPUL>
0

>  <SCORE.INTRA.REPUL.0>
0

>  <SCORE.INTRA.SOLV>
0.0610538

>  <SCORE.INTRA.SOLV.lig_0>
-17.3568

>  <SCORE.INTRA.VDW>
2.41221

>  <SCORE.INTRA.VDW.0>
1.0768

>  <SCORE.INTRA.norm>
-0.130084

>  <SCORE.RESTR>
0.594329

>  <SCORE.RESTR.CAVITY>
0.594329

>  <SCORE.RESTR.norm>
0.0258404

>  <SCORE.SYSTEM>
0

>  <SCORE.SYSTEM.CONST>
0

>  <SCORE.SYSTEM.DIHEDRAL>
0

>  <SCORE.SYSTEM.SOLV>
0

>  <SCORE.SYSTEM.norm>
0

>  <SCORE.heavy>
23

>  <SCORE.norm>
-1.4619

>  <RMSD>
14.531

$$$$
1uui_lig
 OpenBabel11021811413D
libRbt.so/2013.1/901 2013/11/27
 23 24  0  0  0  0  0  0  0  0999 V2000
  -19.0768   -7.9504    9.2395 C   0  0  0  0  0  0  0  0  0  0  0  0
  -19.2437   -6.2775   11.6112 O   0  0  0  0  0  0  0  0  0  0  0  0
  -21.9097   -4.4926    6.8985 O   0  0  0  0  0  0  0  0  0  0  0  0
  -20.0992   -7.1460   12.3648 C   0  0  0  0  0  0  0  0  0  0  0  0
  -20.9428   -4.0343    5.9503 C   0  0  0  0  0  0  0  0  0  0  0  0
  -17.6075   -7.6835    9.1007 N   0  0  0  0  0  0  0  0  0  0  0  0
  -19.4610   -7.4165   13.7282 C   0  0  0  0  0  0  0  0  0  0  0  0
  -17.3198   -6.8637    7.8924 C   0  0  0  0  0  0  0  0  0  0  0  0
  -16.8408   -8.9554    9.0309 C   0  0  0  0  0  0  0  0  0  0  0  0
  -19.5198   -6.1538   14.5937 C   0  0  0  0  0  0  0  0  0  0  0  0
  -17.7611   -7.5706    6.5995 C   0  0  0  0  0  0  0  0  0  0  0  0
  -17.2799   -9.8175    7.8350 C   0  0  0  0  0  0  0  0  0  0  0  0
  -18.8112   -6.3966   15.8702 N   0  0  0  0  0  0  0  0  0  0  0  0
  -18.0405   -9.0242    6.8198 N   0  0  0  0  0  0  0  0  0  0  0  0
  -18.8468   -9.7082    5.8911 C   0  0  0  0  0  0  0  0  0  0  0  0
  -20.1616   -9.9528    6.1565 N   0  0  0  0  0  0  0  0  0  0  0  0
  -18.3022  -10.2581    4.7684 N   0  0  0  0  0  0  0  0  0  0  0  0
  -19.9150   -5.8336   10.4287 C   0  0  0  0  0  0  0  0  0  0  0  0
  -19.8612   -6.6177    9.2440 C   0  0  0  0  0  0  0  0  0  0  0  0
  -20.5266   -6.1699    8.0691 C   0  0  0  0  0  0  0  0  0  0  0  0
  -21.2427   -4.9421    8.0813 C   0  0  0  0  0  0  0  0  0  0  0  0
  -21.2957   -4.1620    9.2662 C   0  0  0  0  0  0  0  0  0  0  0  0
  -20.6311   -4.6074   10.4391 C   0  0  0  0  0  0  0  0  0  0  0  0
  2  4  1  0  0  0  0
  3  5  1  0  0  0  0
  4  7  1  0  0  0  0
  6  1  1  0  0  0  0
  7 10  1  0  0  0  0
  8  6  1  0  0  0  0
  8 11  1  0  0  0  0
  9  6  1  0  0  0  0
 10 13  1  0  0  0  0
 11 14  1  0  0  0  0
 12  9  1  0  0  0  0
 14 12  1  0  0  0  0
 14 15  1  0  0  0  0
 15 16  1  0  0  0  0
 15 17  1  0  0  0  0
 18  2  1  0  0  0  0
 18 23  2  0  0  0  0
 19  1  1  0  0  0  0
 19 18  1  0  0  0  0
 20 19  2  0  0  0  0
 21  3  1  0  0  0  0
 21 20  1  0  0  0  0
 22 21  2  0  0  0  0
 22 23  1  0  0  0  0
M  END
>  <CHROM.1>
-170.48489036,70.86443143,-55.24159999,-175.82212017,179.90895211,-100.44873471
23.87645727,28.68399806,-86.84819355,-79.04963705,-73.18922294,-19.31164773
-7.08367357,9.14420071,-1.41003229,-0.94600801,1.38586972

>  <Name>
1uui_lig

>  <RI>
0

>  <Rbt.Current_Directory>
/home/itssahil/PROJECTS/Mol_Feturizer/New_Systems/rnas/1uui

>  <Rbt.Executable>
rbdock ($Id: //depot/dev/client3/rdock/2013.1/src/exe/rbdock.cxx#4 $)

>  <Rbt.Library>
libRbt.so (2013.1, Build901 2013/11/27)

>  <Rbt.Parameter_File>
/export/apps/rDock/src/rDock_2013.1_src/data/scripts/dock_solv.prm

>  <Rbt.Receptor>
prm/blind_docking_40.prm

>  <SCORE>
-23.064

>  <SCORE.INTER>
-15.3494

>  <SCORE.INTER.CONST>
1

>  <SCORE.INTER.POLAR>
-1.89545

>  <SCORE.INTER.ROT>
10

>  <SCORE.INTER.SOLV>
4.46022

>  <SCORE.INTER.VDW>
-15.6682

>  <SCORE.INTER.norm>
-0.667365

>  <SCORE.INTRA>
-7.71457

>  <SCORE.INTRA.DIHEDRAL>
-9.03871

>  <SCORE.INTRA.DIHEDRAL.0>
23.4151

>  <SCORE.INTRA.POLAR>
0

>  <SCORE.INTRA.POLAR.0>
0

>  <SCORE.INTRA.REPUL>
0

>  <SCORE.INTRA.REPUL.0>
0

>  <SCORE.INTRA.SOLV>
0.303302

>  <SCORE.INTRA.SOLV.lig_0>
-17.3568

>  <SCORE.INTRA.VDW>
-3.34686

>  <SCORE.INTRA.VDW.0>
1.0768

>  <SCORE.INTRA.norm>
-0.335416

>  <SCORE.RESTR>
0

>  <SCORE.RESTR.CAVITY>
0

>  <SCORE.RESTR.norm>
0

>  <SCORE.SYSTEM>
0

>  <SCORE.SYSTEM.CONST>
0

>  <SCORE.SYSTEM.DIHEDRAL>
0

>  <SCORE.SYSTEM.SOLV>
0

>  <SCORE.SYSTEM.norm>
0

>  <SCORE.heavy>
23

>  <SCORE.norm>
-1.00278

>  <RMSD>
14.538

$$$$
1uui_lig
 OpenBabel11021811413D
libRbt.so/2013.1/901 2013/11/27
 23 24  0  0  0  0  0  0  0  0999 V2000
  -19.2949   -7.2392    9.8170 C   0  0  0  0  0  0  0  0  0  0  0  0
  -17.6797   -8.4318    7.7146 O   0  0  0  0  0  0  0  0  0  0  0  0
  -15.4855   -8.2344   12.9729 O   0  0  0  0  0  0  0  0  0  0  0  0
  -18.5905   -9.5323    7.5992 C   0  0  0  0  0  0  0  0  0  0  0  0
  -15.9455   -9.3585   13.7272 C   0  0  0  0  0  0  0  0  0  0  0  0
  -20.1643   -7.3965   11.0289 N   0  0  0  0  0  0  0  0  0  0  0  0
  -18.3054  -10.2827    6.2974 C   0  0  0  0  0  0  0  0  0  0  0  0
  -21.5885   -7.6004   10.6483 C   0  0  0  0  0  0  0  0  0  0  0  0
  -20.0539   -6.2111   11.9194 C   0  0  0  0  0  0  0  0  0  0  0  0
  -18.6516   -9.3973    5.0960 C   0  0  0  0  0  0  0  0  0  0  0  0
  -22.1494   -6.4057    9.8585 C   0  0  0  0  0  0  0  0  0  0  0  0
  -20.4761   -4.9192   11.1990 C   0  0  0  0  0  0  0  0  0  0  0  0
  -18.2006  -10.0569    3.8502 N   0  0  0  0  0  0  0  0  0  0  0  0
  -21.2698   -5.1994    9.9621 N   0  0  0  0  0  0  0  0  0  0  0  0
  -21.3854   -4.1900    8.9883 C   0  0  0  0  0  0  0  0  0  0  0  0
  -20.2757   -3.5909    8.4701 N   0  0  0  0  0  0  0  0  0  0  0  0
  -22.6076   -3.6955    8.6401 N   0  0  0  0  0  0  0  0  0  0  0  0
  -17.1328   -8.3846    9.0355 C   0  0  0  0  0  0  0  0  0  0  0  0
  -17.8852   -7.8102   10.0962 C   0  0  0  0  0  0  0  0  0  0  0  0
  -17.3353   -7.7615   11.4073 C   0  0  0  0  0  0  0  0  0  0  0  0
  -16.0375   -8.2860   11.6543 C   0  0  0  0  0  0  0  0  0  0  0  0
  -15.2892   -8.8601   10.5934 C   0  0  0  0  0  0  0  0  0  0  0  0
  -15.8365   -8.9083    9.2842 C   0  0  0  0  0  0  0  0  0  0  0  0
  2  4  1  0  0  0  0
  3  5  1  0  0  0  0
  4  7  1  0  0  0  0
  6  1  1  0  0  0  0
  7 10  1  0  0  0  0
  8  6  1  0  0  0  0
  8 11  1  0  0  0  0
  9  6  1  0  0  0  0
 10 13  1  0  0  0  0
 11 14  1  0  0  0  0
 12  9  1  0  0  0  0
 14 12  1  0  0  0  0
 14 15  1  0  0  0  0
 15 16  1  0  0  0  0
 15 17  1  0  0  0  0
 18  2  1  0  0  0  0
 18 23  2  0  0  0  0
 19  1  1  0  0  0  0
 19 18  1  0  0  0  0
 20 19  2  0  0  0  0
 21  3  1  0  0  0  0
 21 20  1  0  0  0  0
 22 21  2  0  0  0  0
 22 23  1  0  0  0  0
M  END
>  <CHROM.1>
-134.19712750,-66.87880219,-148.14490911,172.28606655,159.57243491,-138.02990960
111.71497612,-145.12487856,-80.28455330,148.71887459,84.47622309,-18.81039675
-7.44992868,9.49856381,-2.85504971,0.68437585,-1.93585048

>  <Name>
1uui_lig

>  <RI>
0

>  <Rbt.Current_Directory>
/home/itssahil/PROJECTS/Mol_Feturizer/New_Systems/rnas/1uui

>  <Rbt.Executable>
rbdock ($Id: //depot/dev/client3/rdock/2013.1/src/exe/rbdock.cxx#4 $)

>  <Rbt.Library>
libRbt.so (2013.1, Build901 2013/11/27)

>  <Rbt.Parameter_File>
/export/apps/rDock/src/rDock_2013.1_src/data/scripts/dock_solv.prm

>  <Rbt.Receptor>
prm/blind_docking_40.prm

>  <SCORE>
-17.5355

>  <SCORE.INTER>
-15.2841

>  <SCORE.INTER.CONST>
1

>  <SCORE.INTER.POLAR>
-0.736455

>  <SCORE.INTER.ROT>
10

>  <SCORE.INTER.SOLV>
7.02311

>  <SCORE.INTER.VDW>
-20.3422

>  <SCORE.INTER.norm>
-0.664525

>  <SCORE.INTRA>
-2.3147

>  <SCORE.INTRA.DIHEDRAL>
-0.149446

>  <SCORE.INTRA.DIHEDRAL.0>
23.4151

>  <SCORE.INTRA.POLAR>
0

>  <SCORE.INTRA.POLAR.0>
0

>  <SCORE.INTRA.REPUL>
0

>  <SCORE.INTRA.REPUL.0>
0

>  <SCORE.INTRA.SOLV>
-0.0346661

>  <SCORE.INTRA.SOLV.lig_0>
-17.3568

>  <SCORE.INTRA.VDW>
-2.22264

>  <SCORE.INTRA.VDW.0>
1.0768

>  <SCORE.INTRA.norm>
-0.100639

>  <SCORE.RESTR>
0.0632458

>  <SCORE.RESTR.CAVITY>
0.0632458

>  <SCORE.RESTR.norm>
0.00274982

>  <SCORE.SYSTEM>
0

>  <SCORE.SYSTEM.CONST>
0

>  <SCORE.SYSTEM.DIHEDRAL>
0

>  <SCORE.SYSTEM.SOLV>
0

>  <SCORE.SYSTEM.norm>
0

>  <SCORE.heavy>
23

>  <SCORE.norm>
-0.762414

>  <RMSD>
14.557

$$$$
1uui_lig
 OpenBabel11021811413D
libRbt.so/2013.1/901 2013/11/27
 23 24  0  0  0  0  0  0  0  0999 V2000
  -20.7569   -7.4013    8.6487 C   0  0  0  0  0  0  0  0  0  0  0  0
  -20.9936   -9.8403    7.0844 O   0  0  0  0  0  0  0  0  0  0  0  0
  -15.8044   -8.3338    8.9029 O   0  0  0  0  0  0  0  0  0  0  0  0
  -20.9688  -10.0577    5.6680 C   0  0  0  0  0  0  0  0  0  0  0  0
  -15.5647   -8.9015   10.1930 C   0  0  0  0  0  0  0  0  0  0  0  0
  -21.1782   -7.6271   10.0704 N   0  0  0  0  0  0  0  0  0  0  0  0
  -20.5204   -8.7715    4.9726 C   0  0  0  0  0  0  0  0  0  0  0  0
  -22.6197   -7.3115   10.2625 C   0  0  0  0  0  0  0  0  0  0  0  0
  -20.3622   -6.8056   11.0030 C   0  0  0  0  0  0  0  0  0  0  0  0
  -20.1065   -9.0736    3.5289 C   0  0  0  0  0  0  0  0  0  0  0  0
  -22.9343   -5.8407    9.9403 C   0  0  0  0  0  0  0  0  0  0  0  0
  -20.4978   -5.3031   10.7025 C   0  0  0  0  0  0  0  0  0  0  0  0
  -18.9968  -10.0530    3.5279 N   0  0  0  0  0  0  0  0  0  0  0  0
  -21.6955   -5.0052    9.8569 N   0  0  0  0  0  0  0  0  0  0  0  0
  -21.7484   -3.7812    9.1645 C   0  0  0  0  0  0  0  0  0  0  0  0
  -21.0878   -2.6851    9.6347 N   0  0  0  0  0  0  0  0  0  0  0  0
  -22.5671   -3.6270    8.0848 N   0  0  0  0  0  0  0  0  0  0  0  0
  -19.6931   -9.4623    7.5450 C   0  0  0  0  0  0  0  0  0  0  0  0
  -19.5277   -8.2773    8.3129 C   0  0  0  0  0  0  0  0  0  0  0  0
  -18.2318   -7.9031    8.7650 C   0  0  0  0  0  0  0  0  0  0  0  0
  -17.1070   -8.7126    8.4491 C   0  0  0  0  0  0  0  0  0  0  0  0
  -17.2756   -9.8960    7.6832 C   0  0  0  0  0  0  0  0  0  0  0  0
  -18.5683  -10.2699    7.2306 C   0  0  0  0  0  0  0  0  0  0  0  0
  2  4  1  0  0  0  0
  3  5  1  0  0  0  0
  4  7  1  0  0  0  0
  6  1  1  0  0  0  0
  7 10  1  0  0  0  0
  8  6  1  0  0  0  0
  8 11  1  0  0  0  0
  9  6  1  0  0  0  0
 10 13  1  0  0  0  0
 11 14  1  0  0  0  0
 12  9  1  0  0  0  0
 14 12  1  0  0  0  0
 14 15  1  0  0  0  0
 15 16  1  0  0  0  0
 15 17  1  0  0  0  0
 18  2  1  0  0  0  0
 18 23  2  0  0  0  0
 19  1  1  0  0  0  0
 19 18  1  0  0  0  0
 20 19  2  0  0  0  0
 21  3  1  0  0  0  0
 21 20  1  0  0  0  0
 22 21  2  0  0  0  0
 22 23  1  0  0  0  0
M  END
>  <CHROM.1>
-59.22613132,164.11086413,-155.06576886,-59.43890150,65.99372646,140.88438969
-100.18074395,-1.10452910,126.76212859,102.97303466,89.40999407,-19.96528035
-7.57177530,8.20250270,2.12854422,-0.54213520,0.94081596

>  <Name>
1uui_lig

>  <RI>
0

>  <Rbt.Current_Directory>
/home/itssahil/PROJECTS/Mol_Feturizer/New_Systems/rnas/1uui

>  <Rbt.Executable>
rbdock ($Id: //depot/dev/client3/rdock/2013.1/src/exe/rbdock.cxx#4 $)

>  <Rbt.Library>
libRbt.so (2013.1, Build901 2013/11/27)

>  <Rbt.Parameter_File>
/export/apps/rDock/src/rDock_2013.1_src/data/scripts/dock_solv.prm

>  <Rbt.Receptor>
prm/blind_docking_80.prm

>  <SCORE>
-23.1327

>  <SCORE.INTER>
-18.2476

>  <SCORE.INTER.CONST>
1

>  <SCORE.INTER.POLAR>
-2.61074

>  <SCORE.INTER.ROT>
10

>  <SCORE.INTER.SOLV>
7.17687

>  <SCORE.INTER.VDW>
-16.1215

>  <SCORE.INTER.norm>
-0.793374

>  <SCORE.INTRA>
-4.89159

>  <SCORE.INTRA.DIHEDRAL>
-9.09854

>  <SCORE.INTRA.DIHEDRAL.0>
23.4151

>  <SCORE.INTRA.POLAR>
0

>  <SCORE.INTRA.POLAR.0>
0

>  <SCORE.INTRA.REPUL>
0

>  <SCORE.INTRA.REPUL.0>
0

>  <SCORE.INTRA.SOLV>
0.269658

>  <SCORE.INTRA.SOLV.lig_0>
-17.3568

>  <SCORE.INTRA.VDW>
-0.477147

>  <SCORE.INTRA.VDW.0>
1.0768

>  <SCORE.INTRA.norm>
-0.212678

>  <SCORE.RESTR>
0.00649674

>  <SCORE.RESTR.CAVITY>
0.00649674

>  <SCORE.RESTR.norm>
0.000282467

>  <SCORE.SYSTEM>
0

>  <SCORE.SYSTEM.CONST>
0

>  <SCORE.SYSTEM.DIHEDRAL>
0

>  <SCORE.SYSTEM.SOLV>
0

>  <SCORE.SYSTEM.norm>
0

>  <SCORE.heavy>
23

>  <SCORE.norm>
-1.00577

>  <RMSD>
14.561

$$$$
1uui_lig
 OpenBabel11021811413D
libRbt.so/2013.1/901 2013/11/27
 23 24  0  0  0  0  0  0  0  0999 V2000
  -20.3259   -7.6123    7.5457 C   0  0  0  0  0  0  0  0  0  0  0  0
  -18.7696   -5.2647    8.2655 O   0  0  0  0  0  0  0  0  0  0  0  0
  -22.0123   -7.6521   12.3014 O   0  0  0  0  0  0  0  0  0  0  0  0
  -19.4536   -4.1441    7.6907 C   0  0  0  0  0  0  0  0  0  0  0  0
  -23.3708   -7.2440   12.1224 C   0  0  0  0  0  0  0  0  0  0  0  0
  -20.0515   -9.0855    7.6080 N   0  0  0  0  0  0  0  0  0  0  0  0
  -19.5879   -3.0455    8.7463 C   0  0  0  0  0  0  0  0  0  0  0  0
  -18.6223   -9.3551    7.9234 C   0  0  0  0  0  0  0  0  0  0  0  0
  -20.4096   -9.7472    6.3257 C   0  0  0  0  0  0  0  0  0  0  0  0
  -20.7180   -2.0852    8.3618 C   0  0  0  0  0  0  0  0  0  0  0  0
  -17.6787   -8.7781    6.8545 C   0  0  0  0  0  0  0  0  0  0  0  0
  -19.6114   -9.1670    5.1457 C   0  0  0  0  0  0  0  0  0  0  0  0
  -20.4657   -0.7582    8.9667 N   0  0  0  0  0  0  0  0  0  0  0  0
  -18.4081   -8.4042    5.6023 N   0  0  0  0  0  0  0  0  0  0  0  0
  -17.8094   -7.4894    4.7162 C   0  0  0  0  0  0  0  0  0  0  0  0
  -18.4966   -6.3999    4.2695 N   0  0  0  0  0  0  0  0  0  0  0  0
  -16.5811   -7.7417    4.1802 N   0  0  0  0  0  0  0  0  0  0  0  0
  -19.5810   -5.8677    9.2775 C   0  0  0  0  0  0  0  0  0  0  0  0
  -20.3602   -7.0171    8.9725 C   0  0  0  0  0  0  0  0  0  0  0  0
  -21.1691   -7.6106    9.9811 C   0  0  0  0  0  0  0  0  0  0  0  0
  -21.1970   -7.0550   11.2891 C   0  0  0  0  0  0  0  0  0  0  0  0
  -20.4168   -5.9081   11.5909 C   0  0  0  0  0  0  0  0  0  0  0  0
  -19.6100   -5.3142   10.5849 C   0  0  0  0  0  0  0  0  0  0  0  0
  2  4  1  0  0  0  0
  3  5  1  0  0  0  0
  4  7  1  0  0  0  0
  6  1  1  0  0  0  0
  7 10  1  0  0  0  0
  8  6  1  0  0  0  0
  8 11  1  0  0  0  0
  9  6  1  0  0  0  0
 10 13  1  0  0  0  0
 11 14  1  0  0  0  0
 12  9  1  0  0  0  0
 14 12  1  0  0  0  0
 14 15  1  0  0  0  0
 15 16  1  0  0  0  0
 15 17  1  0  0  0  0
 18  2  1  0  0  0  0
 18 23  2  0  0  0  0
 19  1  1  0  0  0  0
 19 18  1  0  0  0  0
 20 19  2  0  0  0  0
 21  3  1  0  0  0  0
 21 20  1  0  0  0  0
 22 21  2  0  0  0  0
 22 23  1  0  0  0  0
M  END
>  <CHROM.1>
66.97819837,-159.35382039,-74.82015437,-154.12739134,147.61015878,-128.91461013
130.62297506,27.59016225,97.99737576,129.10575672,-79.29506997,-19.75745063
-6.59630001,8.14033189,0.61414806,-1.04862362,-3.03090410

>  <Name>
1uui_lig

>  <RI>
0

>  <Rbt.Current_Directory>
/home/itssahil/PROJECTS/Mol_Feturizer/New_Systems/rnas/1uui

>  <Rbt.Executable>
rbdock ($Id: //depot/dev/client3/rdock/2013.1/src/exe/rbdock.cxx#4 $)

>  <Rbt.Library>
libRbt.so (2013.1, Build901 2013/11/27)

>  <Rbt.Parameter_File>
/export/apps/rDock/src/rDock_2013.1_src/data/scripts/dock_solv.prm

>  <Rbt.Receptor>
prm/blind_docking_100.prm

>  <SCORE>
-23.809

>  <SCORE.INTER>
-21.4068

>  <SCORE.INTER.CONST>
1

>  <SCORE.INTER.POLAR>
-3.43059

>  <SCORE.INTER.ROT>
10

>  <SCORE.INTER.SOLV>
7.53927

>  <SCORE.INTER.VDW>
-15.6156

>  <SCORE.INTER.norm>
-0.930729

>  <SCORE.INTRA>
-3.12167

>  <SCORE.INTRA.DIHEDRAL>
-3.26463

>  <SCORE.INTRA.DIHEDRAL.0>
23.4151

>  <SCORE.INTRA.POLAR>
0

>  <SCORE.INTRA.POLAR.0>
0

>  <SCORE.INTRA.REPUL>
0

>  <SCORE.INTRA.REPUL.0>
0

>  <SCORE.INTRA.SOLV>
0.138574

>  <SCORE.INTRA.SOLV.lig_0>
-17.3568

>  <SCORE.INTRA.VDW>
-1.55864

>  <SCORE.INTRA.VDW.0>
1.0768

>  <SCORE.INTRA.norm>
-0.135725

>  <SCORE.RESTR>
0.719461

>  <SCORE.RESTR.CAVITY>
0.719461

>  <SCORE.RESTR.norm>
0.0312809

>  <SCORE.SYSTEM>
0

>  <SCORE.SYSTEM.CONST>
0

>  <SCORE.SYSTEM.DIHEDRAL>
0

>  <SCORE.SYSTEM.SOLV>
0

>  <SCORE.SYSTEM.norm>
0

>  <SCORE.heavy>
23

>  <SCORE.norm>
-1.03517

>  <RMSD>
14.562

$$$$
1uui_lig
 OpenBabel11021811413D
libRbt.so/2013.1/901 2013/11/27
 23 24  0  0  0  0  0  0  0  0999 V2000
  -21.4070   -7.0353    7.5657 C   0  0  0  0  0  0  0  0  0  0  0  0
  -19.7192   -6.8289    9.9237 O   0  0  0  0  0  0  0  0  0  0  0  0
  -22.5034   -2.1538    8.2220 O   0  0  0  0  0  0  0  0  0  0  0  0
  -19.8868   -7.0151   11.3348 C   0  0  0  0  0  0  0  0  0  0  0  0
  -21.6242   -1.0282    8.2837 C   0  0  0  0  0  0  0  0  0  0  0  0
  -21.8352   -6.7557    6.1557 N   0  0  0  0  0  0  0  0  0  0  0  0
  -21.2396   -7.6798   11.5941 C   0  0  0  0  0  0  0  0  0  0  0  0
  -22.1484   -8.0151    5.4273 C   0  0  0  0  0  0  0  0  0  0  0  0
  -20.7831   -6.0059    5.4199 C   0  0  0  0  0  0  0  0  0  0  0  0
  -22.3744   -6.7193   11.2241 C   0  0  0  0  0  0  0  0  0  0  0  0
  -20.9278   -8.9467    5.3382 C   0  0  0  0  0  0  0  0  0  0  0  0
  -19.4607   -6.7896    5.3659 C   0  0  0  0  0  0  0  0  0  0  0  0
  -23.6232   -7.1498   11.8917 N   0  0  0  0  0  0  0  0  0  0  0  0
  -19.6537   -8.2397    5.6795 N   0  0  0  0  0  0  0  0  0  0  0  0
  -18.5371   -9.0034    6.0673 C   0  0  0  0  0  0  0  0  0  0  0  0
  -18.0259   -8.9009    7.3271 N   0  0  0  0  0  0  0  0  0  0  0  0
  -17.8607   -9.7598    5.1563 N   0  0  0  0  0  0  0  0  0  0  0  0
  -20.4218   -5.6582    9.4971 C   0  0  0  0  0  0  0  0  0  0  0  0
  -21.2585   -5.7103    8.3489 C   0  0  0  0  0  0  0  0  0  0  0  0
  -21.9517   -4.5423    7.9258 C   0  0  0  0  0  0  0  0  0  0  0  0
  -21.8071   -3.3277    8.6499 C   0  0  0  0  0  0  0  0  0  0  0  0
  -20.9718   -3.2792    9.7968 C   0  0  0  0  0  0  0  0  0  0  0  0
  -20.2787   -4.4440   10.2193 C   0  0  0  0  0  0  0  0  0  0  0  0
  2  4  1  0  0  0  0
  3  5  1  0  0  0  0
  4  7  1  0  0  0  0
  6  1  1  0  0  0  0
  7 10  1  0  0  0  0
  8  6  1  0  0  0  0
  8 11  1  0  0  0  0
  9  6  1  0  0  0  0
 10 13  1  0  0  0  0
 11 14  1  0  0  0  0
 12  9  1  0  0  0  0
 14 12  1  0  0  0  0
 14 15  1  0  0  0  0
 15 16  1  0  0  0  0
 15 17  1  0  0  0  0
 18  2  1  0  0  0  0
 18 23  2  0  0  0  0
 19  1  1  0  0  0  0
 19 18  1  0  0  0  0
 20 19  2  0  0  0  0
 21  3  1  0  0  0  0
 21 20  1  0  0  0  0
 22 21  2  0  0  0  0
 22 23  1  0  0  0  0
M  END
>  <CHROM.1>
80.91486341,-67.18580849,-172.98151056,-160.51540754,-36.93081319,-115.06523991
-44.31138480,-7.01432343,-132.56212633,-156.90400025,-136.32042560,-20.79672504
-6.35058550,8.10742354,0.20790553,1.17736704,-1.04709840

>  <Name>
1uui_lig

>  <RI>
0

>  <Rbt.Current_Directory>
/home/itssahil/PROJECTS/Mol_Feturizer/New_Systems/rnas/1uui

>  <Rbt.Executable>
rbdock ($Id: //depot/dev/client3/rdock/2013.1/src/exe/rbdock.cxx#4 $)

>  <Rbt.Library>
libRbt.so (2013.1, Build901 2013/11/27)

>  <Rbt.Parameter_File>
/export/apps/rDock/src/rDock_2013.1_src/data/scripts/dock_solv.prm

>  <Rbt.Receptor>
prm/blind_docking_100.prm

>  <SCORE>
-26.8261

>  <SCORE.INTER>
-25.4574

>  <SCORE.INTER.CONST>
1

>  <SCORE.INTER.POLAR>
-4.0341

>  <SCORE.INTER.ROT>
10

>  <SCORE.INTER.SOLV>
5.47762

>  <SCORE.INTER.VDW>
-15.6171

>  <SCORE.INTER.norm>
-1.10684

>  <SCORE.INTRA>
-2.49239

>  <SCORE.INTRA.DIHEDRAL>
-9.53789

>  <SCORE.INTRA.DIHEDRAL.0>
23.4151

>  <SCORE.INTRA.POLAR>
0

>  <SCORE.INTRA.POLAR.0>
0

>  <SCORE.INTRA.REPUL>
0.00250527

>  <SCORE.INTRA.REPUL.0>
0

>  <SCORE.INTRA.SOLV>
0.186803

>  <SCORE.INTRA.SOLV.lig_0>
-17.3568

>  <SCORE.INTRA.VDW>
2.17063

>  <SCORE.INTRA.VDW.0>
1.0768

>  <SCORE.INTRA.norm>
-0.108365

>  <SCORE.RESTR>
1.12368

>  <SCORE.RESTR.CAVITY>
1.12368

>  <SCORE.RESTR.norm>
0.0488555

>  <SCORE.SYSTEM>
0

>  <SCORE.SYSTEM.CONST>
0

>  <SCORE.SYSTEM.DIHEDRAL>
0

>  <SCORE.SYSTEM.SOLV>
0

>  <SCORE.SYSTEM.norm>
0

>  <SCORE.heavy>
23

>  <SCORE.norm>
-1.16635

>  <RMSD>
14.580

$$$$
1uui_lig
 OpenBabel11021811413D
libRbt.so/2013.1/901 2013/11/27
 23 24  0  0  0  0  0  0  0  0999 V2000
  -19.8978   -7.7520    9.4193 C   0  0  0  0  0  0  0  0  0  0  0  0
  -18.0266   -7.9522    7.2034 O   0  0  0  0  0  0  0  0  0  0  0  0
  -16.0871   -9.0982   12.4406 O   0  0  0  0  0  0  0  0  0  0  0  0
  -17.5398   -8.9285    6.2740 C   0  0  0  0  0  0  0  0  0  0  0  0
  -15.7701   -7.8743   13.1081 C   0  0  0  0  0  0  0  0  0  0  0  0
  -19.9726   -6.4123    8.7491 N   0  0  0  0  0  0  0  0  0  0  0  0
  -18.0333   -8.5726    4.8708 C   0  0  0  0  0  0  0  0  0  0  0  0
  -19.5928   -5.3192    9.6848 C   0  0  0  0  0  0  0  0  0  0  0  0
  -21.3384   -6.1591    8.2191 C   0  0  0  0  0  0  0  0  0  0  0  0
  -19.5334   -8.8610    4.7544 C   0  0  0  0  0  0  0  0  0  0  0  0
  -20.5300   -5.2531   10.9027 C   0  0  0  0  0  0  0  0  0  0  0  0
  -22.3950   -6.1885    9.3365 C   0  0  0  0  0  0  0  0  0  0  0  0
  -20.0021   -8.4989    3.3981 N   0  0  0  0  0  0  0  0  0  0  0  0
  -21.7816   -6.0464   10.6937 N   0  0  0  0  0  0  0  0  0  0  0  0
  -22.5249   -6.4497   11.8186 C   0  0  0  0  0  0  0  0  0  0  0  0
  -22.1018   -6.1467   13.0789 N   0  0  0  0  0  0  0  0  0  0  0  0
  -23.6091   -7.2651   11.6808 N   0  0  0  0  0  0  0  0  0  0  0  0
  -17.5432   -8.2430    8.5179 C   0  0  0  0  0  0  0  0  0  0  0  0
  -18.4211   -8.1579    9.6329 C   0  0  0  0  0  0  0  0  0  0  0  0
  -17.9346   -8.4437   10.9389 C   0  0  0  0  0  0  0  0  0  0  0  0
  -16.5749   -8.8130   11.1265 C   0  0  0  0  0  0  0  0  0  0  0  0
  -15.7012   -8.8983   10.0109 C   0  0  0  0  0  0  0  0  0  0  0  0
  -16.1852   -8.6123    8.7072 C   0  0  0  0  0  0  0  0  0  0  0  0
  2  4  1  0  0  0  0
  3  5  1  0  0  0  0
  4  7  1  0  0  0  0
  6  1  1  0  0  0  0
  7 10  1  0  0  0  0
  8  6  1  0  0  0  0
  8 11  1  0  0  0  0
  9  6  1  0  0  0  0
 10 13  1  0  0  0  0
 11 14  1  0  0  0  0
 12  9  1  0  0  0  0
 14 12  1  0  0  0  0
 14 15  1  0  0  0  0
 15 16  1  0  0  0  0
 15 17  1  0  0  0  0
 18  2  1  0  0  0  0
 18 23  2  0  0  0  0
 19  1  1  0  0  0  0
 19 18  1  0  0  0  0
 20 19  2  0  0  0  0
 21  3  1  0  0  0  0
 21 20  1  0  0  0  0
 22 21  2  0  0  0  0
 22 23  1  0  0  0  0
M  END
>  <CHROM.1>
-178.25763774,-72.51740721,-72.55055458,179.38135068,-56.58826222,-1.23115878
63.05992142,95.73452245,-136.26009142,-57.56568865,-81.88030027,-19.24170389
-7.54824066,9.30378310,2.04710715,-0.37752321,1.42928313

>  <Name>
1uui_lig

>  <RI>
0

>  <Rbt.Current_Directory>
/home/itssahil/PROJECTS/Mol_Feturizer/New_Systems/rnas/1uui

>  <Rbt.Executable>
rbdock ($Id: //depot/dev/client3/rdock/2013.1/src/exe/rbdock.cxx#4 $)

>  <Rbt.Library>
libRbt.so (2013.1, Build901 2013/11/27)

>  <Rbt.Parameter_File>
/export/apps/rDock/src/rDock_2013.1_src/data/scripts/dock_solv.prm

>  <Rbt.Receptor>
prm/blind_docking_80.prm

>  <SCORE>
-34.8458

>  <SCORE.INTER>
-26.5242

>  <SCORE.INTER.CONST>
1

>  <SCORE.INTER.POLAR>
-2.5615

>  <SCORE.INTER.ROT>
10

>  <SCORE.INTER.SOLV>
8.41526

>  <SCORE.INTER.VDW>
-22.2162

>  <SCORE.INTER.norm>
-1.15323

>  <SCORE.INTRA>
-8.70656

>  <SCORE.INTRA.DIHEDRAL>
-11.0621

>  <SCORE.INTRA.DIHEDRAL.0>
23.4151

>  <SCORE.INTRA.POLAR>
-0.604186

>  <SCORE.INTRA.POLAR.0>
0

>  <SCORE.INTRA.REPUL>
0

>  <SCORE.INTRA.REPUL.0>
0

>  <SCORE.INTRA.SOLV>
0.240206

>  <SCORE.INTRA.SOLV.lig_0>
-17.3568

>  <SCORE.INTRA.VDW>
-1.24139

>  <SCORE.INTRA.VDW.0>
1.0768

>  <SCORE.INTRA.norm>
-0.378546

>  <SCORE.RESTR>
0.384974

>  <SCORE.RESTR.CAVITY>
0.384974

>  <SCORE.RESTR.norm>
0.016738

>  <SCORE.SYSTEM>
0

>  <SCORE.SYSTEM.CONST>
0

>  <SCORE.SYSTEM.DIHEDRAL>
0

>  <SCORE.SYSTEM.SOLV>
0

>  <SCORE.SYSTEM.norm>
0

>  <SCORE.heavy>
23

>  <SCORE.norm>
-1.51503

>  <RMSD>
14.590

$$$$
1uui_lig
 OpenBabel11021811413D
libRbt.so/2013.1/901 2013/11/27
 23 24  0  0  0  0  0  0  0  0999 V2000
  -20.0206   -7.6089    9.4089 C   0  0  0  0  0  0  0  0  0  0  0  0
  -19.4234   -9.2190    7.0632 O   0  0  0  0  0  0  0  0  0  0  0  0
  -15.3016   -8.5282   10.9411 O   0  0  0  0  0  0  0  0  0  0  0  0
  -19.2691   -8.2575    6.0118 C   0  0  0  0  0  0  0  0  0  0  0  0
  -15.8429   -8.7041   12.2526 C   0  0  0  0  0  0  0  0  0  0  0  0
  -20.3445   -7.5364   10.8716 N   0  0  0  0  0  0  0  0  0  0  0  0
  -18.1324   -8.7025    5.0904 C   0  0  0  0  0  0  0  0  0  0  0  0
  -21.7748   -7.8606   11.1241 C   0  0  0  0  0  0  0  0  0  0  0  0
  -20.0380   -6.1877   11.4172 C   0  0  0  0  0  0  0  0  0  0  0  0
  -18.4333  -10.0926    4.5212 C   0  0  0  0  0  0  0  0  0  0  0  0
  -22.7213   -6.8764   10.4161 C   0  0  0  0  0  0  0  0  0  0  0  0
  -20.8416   -5.0896   10.6999 C   0  0  0  0  0  0  0  0  0  0  0  0
  -19.5274   -9.9940    3.5294 N   0  0  0  0  0  0  0  0  0  0  0  0
  -22.0074   -5.6478    9.9465 N   0  0  0  0  0  0  0  0  0  0  0  0
  -22.5936   -4.8692    8.9313 C   0  0  0  0  0  0  0  0  0  0  0  0
  -21.9528   -4.6754    7.7435 N   0  0  0  0  0  0  0  0  0  0  0  0
  -23.7492   -4.1824    9.1604 N   0  0  0  0  0  0  0  0  0  0  0  0
  -18.3920   -9.0475    8.0394 C   0  0  0  0  0  0  0  0  0  0  0  0
  -18.6370   -8.2679    9.2028 C   0  0  0  0  0  0  0  0  0  0  0  0
  -17.6067   -8.0964   10.1687 C   0  0  0  0  0  0  0  0  0  0  0  0
  -16.3369   -8.7033    9.9697 C   0  0  0  0  0  0  0  0  0  0  0  0
  -16.0957   -9.4821    8.8076 C   0  0  0  0  0  0  0  0  0  0  0  0
  -17.1228   -9.6531    7.8424 C   0  0  0  0  0  0  0  0  0  0  0  0
  2  4  1  0  0  0  0
  3  5  1  0  0  0  0
  4  7  1  0  0  0  0
  6  1  1  0  0  0  0
  7 10  1  0  0  0  0
  8  6  1  0  0  0  0
  8 11  1  0  0  0  0
  9  6  1  0  0  0  0
 10 13  1  0  0  0  0
 11 14  1  0  0  0  0
 12  9  1  0  0  0  0
 14 12  1  0  0  0  0
 14 15  1  0  0  0  0
 15 16  1  0  0  0  0
 15 17  1  0  0  0  0
 18  2  1  0  0  0  0
 18 23  2  0  0  0  0
 19  1  1  0  0  0  0
 19 18  1  0  0  0  0
 20 19  2  0  0  0  0
 21  3  1  0  0  0  0
 21 20  1  0  0  0  0
 22 21  2  0  0  0  0
 22 23  1  0  0  0  0
M  END
>  <CHROM.1>
76.85987458,58.11838892,-139.46147238,71.62959122,-169.09563785,-119.24074244
124.74654926,170.51322865,95.62572207,147.98250423,44.66883573,-19.45360698
-7.68374809,8.78967446,-2.55937143,0.53959850,-1.89678017

>  <Name>
1uui_lig

>  <RI>
0

>  <Rbt.Current_Directory>
/home/itssahil/PROJECTS/Mol_Feturizer/New_Systems/rnas/1uui

>  <Rbt.Executable>
rbdock ($Id: //depot/dev/client3/rdock/2013.1/src/exe/rbdock.cxx#4 $)

>  <Rbt.Library>
libRbt.so (2013.1, Build901 2013/11/27)

>  <Rbt.Parameter_File>
/export/apps/rDock/src/rDock_2013.1_src/data/scripts/dock_solv.prm

>  <Rbt.Receptor>
prm/blind_docking_80.prm

>  <SCORE>
-20.9802

>  <SCORE.INTER>
-18.2008

>  <SCORE.INTER.CONST>
1

>  <SCORE.INTER.POLAR>
-1.65038

>  <SCORE.INTER.ROT>
10

>  <SCORE.INTER.SOLV>
6.97142

>  <SCORE.INTER.VDW>
-19.2231

>  <SCORE.INTER.norm>
-0.79134

>  <SCORE.INTRA>
-2.94532

>  <SCORE.INTRA.DIHEDRAL>
-7.23259

>  <SCORE.INTRA.DIHEDRAL.0>
23.4151

>  <SCORE.INTRA.POLAR>
0

>  <SCORE.INTRA.POLAR.0>
0

>  <SCORE.INTRA.REPUL>
0

>  <SCORE.INTRA.REPUL.0>
0

>  <SCORE.INTRA.SOLV>
0.184963

>  <SCORE.INTRA.SOLV.lig_0>
-17.3568

>  <SCORE.INTRA.VDW>
0.578489

>  <SCORE.INTRA.VDW.0>
1.0768

>  <SCORE.INTRA.norm>
-0.128058

>  <SCORE.RESTR>
0.165958

>  <SCORE.RESTR.CAVITY>
0.165958

>  <SCORE.RESTR.norm>
0.00721557

>  <SCORE.SYSTEM>
0

>  <SCORE.SYSTEM.CONST>
0

>  <SCORE.SYSTEM.DIHEDRAL>
0

>  <SCORE.SYSTEM.SOLV>
0

>  <SCORE.SYSTEM.norm>
0

>  <SCORE.heavy>
23

>  <SCORE.norm>
-0.912182

>  <RMSD>
14.593

$$$$
1uui_lig
 OpenBabel11021811413D
libRbt.so/2013.1/901 2013/11/27
 23 24  0  0  0  0  0  0  0  0999 V2000
  -19.8349   -7.2952    9.3095 C   0  0  0  0  0  0  0  0  0  0  0  0
  -17.8981   -7.2476    7.1420 O   0  0  0  0  0  0  0  0  0  0  0  0
  -16.1679   -9.1782   12.2197 O   0  0  0  0  0  0  0  0  0  0  0  0
  -18.9286   -8.0930    6.6155 C   0  0  0  0  0  0  0  0  0  0  0  0
  -15.8562   -8.0704   13.0680 C   0  0  0  0  0  0  0  0  0  0  0  0
  -19.8562   -5.8255    9.0110 N   0  0  0  0  0  0  0  0  0  0  0  0
  -18.3257   -9.4524    6.2578 C   0  0  0  0  0  0  0  0  0  0  0  0
  -19.4225   -5.0291   10.1910 C   0  0  0  0  0  0  0  0  0  0  0  0
  -21.2134   -5.3887    8.5897 C   0  0  0  0  0  0  0  0  0  0  0  0
  -18.3847  -10.3869    7.4703 C   0  0  0  0  0  0  0  0  0  0  0  0
  -20.3472   -5.2442   11.4013 C   0  0  0  0  0  0  0  0  0  0  0  0
  -22.2623   -5.6650    9.6803 C   0  0  0  0  0  0  0  0  0  0  0  0
  -17.8607  -11.7187    7.0934 N   0  0  0  0  0  0  0  0  0  0  0  0
  -21.6336   -5.9050   11.0165 N   0  0  0  0  0  0  0  0  0  0  0  0
  -22.3856   -6.5565   12.0118 C   0  0  0  0  0  0  0  0  0  0  0  0
  -23.5468   -7.1992   11.6996 N   0  0  0  0  0  0  0  0  0  0  0  0
  -22.0429   -6.4463   13.3271 N   0  0  0  0  0  0  0  0  0  0  0  0
  -17.4673   -7.7351    8.4159 C   0  0  0  0  0  0  0  0  0  0  0  0
  -18.3787   -7.7768    9.5062 C   0  0  0  0  0  0  0  0  0  0  0  0
  -17.9444   -8.2583   10.7725 C   0  0  0  0  0  0  0  0  0  0  0  0
  -16.6032   -8.6961   10.9453 C   0  0  0  0  0  0  0  0  0  0  0  0
  -15.6959   -8.6545    9.8542 C   0  0  0  0  0  0  0  0  0  0  0  0
  -16.1278   -8.1731    8.5903 C   0  0  0  0  0  0  0  0  0  0  0  0
  2  4  1  0  0  0  0
  3  5  1  0  0  0  0
  4  7  1  0  0  0  0
  6  1  1  0  0  0  0
  7 10  1  0  0  0  0
  8  6  1  0  0  0  0
  8 11  1  0  0  0  0
  9  6  1  0  0  0  0
 10 13  1  0  0  0  0
 11 14  1  0  0  0  0
 12  9  1  0  0  0  0
 14 12  1  0  0  0  0
 14 15  1  0  0  0  0
 15 16  1  0  0  0  0
 15 17  1  0  0  0  0
 18  2  1  0  0  0  0
 18 23  2  0  0  0  0
 19  1  1  0  0  0  0
 19 18  1  0  0  0  0
 20 19  2  0  0  0  0
 21  3  1  0  0  0  0
 21 20  1  0  0  0  0
 22 21  2  0  0  0  0
 22 23  1  0  0  0  0
M  END
>  <CHROM.1>
-68.50537717,89.03941037,-67.61484422,177.21406668,173.12597296,-178.39711334
117.38363101,33.23217664,-63.12999477,-65.10198606,-81.01704725,-19.09468371
-7.58833301,9.75835152,2.54585152,-0.47935151,1.32065704

>  <Name>
1uui_lig

>  <RI>
0

>  <Rbt.Current_Directory>
/home/itssahil/PROJECTS/Mol_Feturizer/New_Systems/rnas/1uui

>  <Rbt.Executable>
rbdock ($Id: //depot/dev/client3/rdock/2013.1/src/exe/rbdock.cxx#4 $)

>  <Rbt.Library>
libRbt.so (2013.1, Build901 2013/11/27)

>  <Rbt.Parameter_File>
/export/apps/rDock/src/rDock_2013.1_src/data/scripts/dock_solv.prm

>  <Rbt.Receptor>
prm/blind_docking_80.prm

>  <SCORE>
-30.6145

>  <SCORE.INTER>
-26.249

>  <SCORE.INTER.CONST>
1

>  <SCORE.INTER.POLAR>
-2.85408

>  <SCORE.INTER.ROT>
10

>  <SCORE.INTER.SOLV>
8.16269

>  <SCORE.INTER.VDW>
-20.9733

>  <SCORE.INTER.norm>
-1.14126

>  <SCORE.INTRA>
-4.55709

>  <SCORE.INTRA.DIHEDRAL>
-7.2589

>  <SCORE.INTRA.DIHEDRAL.0>
23.4151

>  <SCORE.INTRA.POLAR>
-0.102261

>  <SCORE.INTRA.POLAR.0>
0

>  <SCORE.INTRA.REPUL>
0

>  <SCORE.INTRA.REPUL.0>
0

>  <SCORE.INTRA.SOLV>
0.350621

>  <SCORE.INTRA.SOLV.lig_0>
-17.3568

>  <SCORE.INTRA.VDW>
-0.75527

>  <SCORE.INTRA.VDW.0>
1.0768

>  <SCORE.INTRA.norm>
-0.198134

>  <SCORE.RESTR>
0.191625

>  <SCORE.RESTR.CAVITY>
0.191625

>  <SCORE.RESTR.norm>
0.00833152

>  <SCORE.SYSTEM>
0

>  <SCORE.SYSTEM.CONST>
0

>  <SCORE.SYSTEM.DIHEDRAL>
0

>  <SCORE.SYSTEM.SOLV>
0

>  <SCORE.SYSTEM.norm>
0

>  <SCORE.heavy>
23

>  <SCORE.norm>
-1.33107

>  <RMSD>
14.593

$$$$
1uui_lig
 OpenBabel11021811413D
libRbt.so/2013.1/901 2013/11/27
 23 24  0  0  0  0  0  0  0  0999 V2000
  -19.6814   -7.4484   10.0929 C   0  0  0  0  0  0  0  0  0  0  0  0
  -17.0759   -7.6169   11.3713 O   0  0  0  0  0  0  0  0  0  0  0  0
  -17.5662   -9.6023    6.0495 O   0  0  0  0  0  0  0  0  0  0  0  0
  -16.7004   -8.6809   12.2550 C   0  0  0  0  0  0  0  0  0  0  0  0
  -18.6000  -10.5888    6.0033 C   0  0  0  0  0  0  0  0  0  0  0  0
  -19.2520   -6.3203   10.9831 N   0  0  0  0  0  0  0  0  0  0  0  0
  -16.3311   -8.0922   13.6175 C   0  0  0  0  0  0  0  0  0  0  0  0
  -20.1070   -6.2366   12.1983 C   0  0  0  0  0  0  0  0  0  0  0  0
  -19.2953   -5.0240   10.2562 C   0  0  0  0  0  0  0  0  0  0  0  0
  -16.1748   -9.2149   14.6481 C   0  0  0  0  0  0  0  0  0  0  0  0
  -21.5825   -5.9807   11.8469 C   0  0  0  0  0  0  0  0  0  0  0  0
  -20.7106   -4.7088    9.7425 C   0  0  0  0  0  0  0  0  0  0  0  0
  -15.2349  -10.2339   14.1297 N   0  0  0  0  0  0  0  0  0  0  0  0
  -21.7540   -5.5319   10.4296 N   0  0  0  0  0  0  0  0  0  0  0  0
  -23.0160   -5.6703    9.8224 C   0  0  0  0  0  0  0  0  0  0  0  0
  -23.6820   -6.8593    9.8618 N   0  0  0  0  0  0  0  0  0  0  0  0
  -23.5398   -4.6622    9.0680 N   0  0  0  0  0  0  0  0  0  0  0  0
  -17.2004   -8.1109   10.0347 C   0  0  0  0  0  0  0  0  0  0  0  0
  -18.4550   -8.0505    9.3686 C   0  0  0  0  0  0  0  0  0  0  0  0
  -18.5750   -8.5471    8.0409 C   0  0  0  0  0  0  0  0  0  0  0  0
  -17.4432   -9.1017    7.3838 C   0  0  0  0  0  0  0  0  0  0  0  0
  -16.1915   -9.1594    8.0511 C   0  0  0  0  0  0  0  0  0  0  0  0
  -16.0708   -8.6651    9.3765 C   0  0  0  0  0  0  0  0  0  0  0  0
  2  4  1  0  0  0  0
  3  5  1  0  0  0  0
  4  7  1  0  0  0  0
  6  1  1  0  0  0  0
  7 10  1  0  0  0  0
  8  6  1  0  0  0  0
  8 11  1  0  0  0  0
  9  6  1  0  0  0  0
 10 13  1  0  0  0  0
 11 14  1  0  0  0  0
 12  9  1  0  0  0  0
 14 12  1  0  0  0  0
 14 15  1  0  0  0  0
 15 16  1  0  0  0  0
 15 17  1  0  0  0  0
 18  2  1  0  0  0  0
 18 23  2  0  0  0  0
 19  1  1  0  0  0  0
 19 18  1  0  0  0  0
 20 19  2  0  0  0  0
 21  3  1  0  0  0  0
 21 20  1  0  0  0  0
 22 21  2  0  0  0  0
 22 23  1  0  0  0  0
M  END
>  <CHROM.1>
169.99081463,169.70319337,-147.16860460,52.62929896,172.05759813,-50.46369429
125.36553096,-45.00655074,117.87255875,34.74321498,-55.86903886,-18.91029522
-7.57235082,10.23885639,-3.05487789,-0.57122024,1.30054865

>  <Name>
1uui_lig

>  <RI>
0

>  <Rbt.Current_Directory>
/home/itssahil/PROJECTS/Mol_Feturizer/New_Systems/rnas/1uui

>  <Rbt.Executable>
rbdock ($Id: //depot/dev/client3/rdock/2013.1/src/exe/rbdock.cxx#4 $)

>  <Rbt.Library>
libRbt.so (2013.1, Build901 2013/11/27)

>  <Rbt.Parameter_File>
/export/apps/rDock/src/rDock_2013.1_src/data/scripts/dock_solv.prm

>  <Rbt.Receptor>
prm/blind_docking_40.prm

>  <SCORE>
-34.2684

>  <SCORE.INTER>
-27.7448

>  <SCORE.INTER.CONST>
1

>  <SCORE.INTER.POLAR>
-2.36127

>  <SCORE.INTER.ROT>
10

>  <SCORE.INTER.SOLV>
9.18469

>  <SCORE.INTER.VDW>
-23.9538

>  <SCORE.INTER.norm>
-1.20629

>  <SCORE.INTRA>
-7.37776

>  <SCORE.INTRA.DIHEDRAL>
-8.77996

>  <SCORE.INTRA.DIHEDRAL.0>
23.4151

>  <SCORE.INTRA.POLAR>
-0.891002

>  <SCORE.INTRA.POLAR.0>
0

>  <SCORE.INTRA.REPUL>
0

>  <SCORE.INTRA.REPUL.0>
0

>  <SCORE.INTRA.SOLV>
0.446119

>  <SCORE.INTRA.SOLV.lig_0>
-17.3568

>  <SCORE.INTRA.VDW>
-0.181433

>  <SCORE.INTRA.VDW.0>
1.0768

>  <SCORE.INTRA.norm>
-0.320772

>  <SCORE.RESTR>
0.854134

>  <SCORE.RESTR.CAVITY>
0.854134

>  <SCORE.RESTR.norm>
0.0371363

>  <SCORE.SYSTEM>
0

>  <SCORE.SYSTEM.CONST>
0

>  <SCORE.SYSTEM.DIHEDRAL>
0

>  <SCORE.SYSTEM.SOLV>
0

>  <SCORE.SYSTEM.norm>
0

>  <SCORE.heavy>
23

>  <SCORE.norm>
-1.48993

>  <RMSD>
14.603

$$$$
1uui_lig
 OpenBabel11021811413D
libRbt.so/2013.1/901 2013/11/27
 23 24  0  0  0  0  0  0  0  0999 V2000
  -19.5779   -6.8589    9.6022 C   0  0  0  0  0  0  0  0  0  0  0  0
  -18.2401   -7.7336    7.1739 O   0  0  0  0  0  0  0  0  0  0  0  0
  -15.5237   -8.4819   12.1302 O   0  0  0  0  0  0  0  0  0  0  0  0
  -17.7091   -8.6243    6.1846 C   0  0  0  0  0  0  0  0  0  0  0  0
  -16.2891   -9.3491   12.9705 C   0  0  0  0  0  0  0  0  0  0  0  0
  -19.5275   -5.4986   10.2318 N   0  0  0  0  0  0  0  0  0  0  0  0
  -18.5780   -9.8816    6.1261 C   0  0  0  0  0  0  0  0  0  0  0  0
  -19.9127   -5.5543   11.6682 C   0  0  0  0  0  0  0  0  0  0  0  0
  -20.4193   -4.5485    9.5159 C   0  0  0  0  0  0  0  0  0  0  0  0
  -18.9951  -10.1631    4.6791 C   0  0  0  0  0  0  0  0  0  0  0  0
  -21.3482   -6.0728   11.8589 C   0  0  0  0  0  0  0  0  0  0  0  0
  -21.8825   -5.0227    9.5312 C   0  0  0  0  0  0  0  0  0  0  0  0
  -17.7900  -10.4178    3.8585 N   0  0  0  0  0  0  0  0  0  0  0  0
  -22.1255   -6.0615   10.5801 N   0  0  0  0  0  0  0  0  0  0  0  0
  -23.2654   -6.8797   10.4721 C   0  0  0  0  0  0  0  0  0  0  0  0
  -23.9035   -7.3370   11.5868 N   0  0  0  0  0  0  0  0  0  0  0  0
  -23.6771   -7.3430    9.2574 N   0  0  0  0  0  0  0  0  0  0  0  0
  -17.5621   -7.9238    8.4190 C   0  0  0  0  0  0  0  0  0  0  0  0
  -18.1763   -7.5113    9.6330 C   0  0  0  0  0  0  0  0  0  0  0  0
  -17.4962   -7.6984   10.8685 C   0  0  0  0  0  0  0  0  0  0  0  0
  -16.2068   -8.2962   10.8872 C   0  0  0  0  0  0  0  0  0  0  0  0
  -15.5967   -8.7082    9.6734 C   0  0  0  0  0  0  0  0  0  0  0  0
  -16.2739   -8.5210    8.4398 C   0  0  0  0  0  0  0  0  0  0  0  0
  2  4  1  0  0  0  0
  3  5  1  0  0  0  0
  4  7  1  0  0  0  0
  6  1  1  0  0  0  0
  7 10  1  0  0  0  0
  8  6  1  0  0  0  0
  8 11  1  0  0  0  0
  9  6  1  0  0  0  0
 10 13  1  0  0  0  0
 11 14  1  0  0  0  0
 12  9  1  0  0  0  0
 14 12  1  0  0  0  0
 14 15  1  0  0  0  0
 15 16  1  0  0  0  0
 15 17  1  0  0  0  0
 18  2  1  0  0  0  0
 18 23  2  0  0  0  0
 19  1  1  0  0  0  0
 19 18  1  0  0  0  0
 20 19  2  0  0  0  0
 21  3  1  0  0  0  0
 21 20  1  0  0  0  0
 22 21  2  0  0  0  0
 22 23  1  0  0  0  0
M  END
>  <CHROM.1>
95.25109378,128.56173982,-94.90990282,62.14022290,-67.35527941,20.67715396
-82.38914384,126.74970300,-158.79437060,-122.37113853,61.51879978,-19.18601320
-7.60608676,9.32875869,-2.41422073,0.32302477,-1.91615517

>  <Name>
1uui_lig

>  <RI>
0

>  <Rbt.Current_Directory>
/home/itssahil/PROJECTS/Mol_Feturizer/New_Systems/rnas/1uui

>  <Rbt.Executable>
rbdock ($Id: //depot/dev/client3/rdock/2013.1/src/exe/rbdock.cxx#4 $)

>  <Rbt.Library>
libRbt.so (2013.1, Build901 2013/11/27)

>  <Rbt.Parameter_File>
/export/apps/rDock/src/rDock_2013.1_src/data/scripts/dock_solv.prm

>  <Rbt.Receptor>
prm/blind_docking_100.prm

>  <SCORE>
-31.1725

>  <SCORE.INTER>
-32.2107

>  <SCORE.INTER.CONST>
1

>  <SCORE.INTER.POLAR>
-3.41916

>  <SCORE.INTER.ROT>
10

>  <SCORE.INTER.SOLV>
11.9126

>  <SCORE.INTER.VDW>
-24.3141

>  <SCORE.INTER.norm>
-1.40047

>  <SCORE.INTRA>
0.848139

>  <SCORE.INTRA.DIHEDRAL>
-2.54171

>  <SCORE.INTRA.DIHEDRAL.0>
23.4151

>  <SCORE.INTRA.POLAR>
0

>  <SCORE.INTRA.POLAR.0>
0

>  <SCORE.INTRA.REPUL>
0

>  <SCORE.INTRA.REPUL.0>
0

>  <SCORE.INTRA.SOLV>
0.0393102

>  <SCORE.INTRA.SOLV.lig_0>
-17.3568

>  <SCORE.INTRA.VDW>
2.09934

>  <SCORE.INTRA.VDW.0>
1.0768

>  <SCORE.INTRA.norm>
0.0368756

>  <SCORE.RESTR>
0.190048

>  <SCORE.RESTR.CAVITY>
0.190048

>  <SCORE.RESTR.norm>
0.00826295

>  <SCORE.SYSTEM>
0

>  <SCORE.SYSTEM.CONST>
0

>  <SCORE.SYSTEM.DIHEDRAL>
0

>  <SCORE.SYSTEM.SOLV>
0

>  <SCORE.SYSTEM.norm>
0

>  <SCORE.heavy>
23

>  <SCORE.norm>
-1.35533

>  <RMSD>
14.609

$$$$
1uui_lig
 OpenBabel11021811413D
libRbt.so/2013.1/901 2013/11/27
 23 24  0  0  0  0  0  0  0  0999 V2000
  -19.6195   -7.2410    8.9965 C   0  0  0  0  0  0  0  0  0  0  0  0
  -17.4489   -7.5763    7.0919 O   0  0  0  0  0  0  0  0  0  0  0  0
  -16.4989   -9.0844   12.5073 O   0  0  0  0  0  0  0  0  0  0  0  0
  -17.5612   -8.7428    6.2669 C   0  0  0  0  0  0  0  0  0  0  0  0
  -15.6352   -8.1255   13.1227 C   0  0  0  0  0  0  0  0  0  0  0  0
  -19.5837   -5.7417    9.0168 N   0  0  0  0  0  0  0  0  0  0  0  0
  -18.9766   -9.3087    6.3915 C   0  0  0  0  0  0  0  0  0  0  0  0
  -19.5925   -5.2208   10.4108 C   0  0  0  0  0  0  0  0  0  0  0  0
  -20.7351   -5.1727    8.2677 C   0  0  0  0  0  0  0  0  0  0  0  0
  -19.0193  -10.7382    5.8422 C   0  0  0  0  0  0  0  0  0  0  0  0
  -20.8610   -5.6395   11.1733 C   0  0  0  0  0  0  0  0  0  0  0  0
  -22.0790   -5.6219    8.8662 C   0  0  0  0  0  0  0  0  0  0  0  0
  -18.4942  -10.7515    4.4585 N   0  0  0  0  0  0  0  0  0  0  0  0
  -21.9252   -6.1547   10.2558 N   0  0  0  0  0  0  0  0  0  0  0  0
  -22.9463   -6.9636   10.7881 C   0  0  0  0  0  0  0  0  0  0  0  0
  -23.9492   -7.4337    9.9930 N   0  0  0  0  0  0  0  0  0  0  0  0
  -23.0307   -7.1842   12.1312 N   0  0  0  0  0  0  0  0  0  0  0  0
  -17.2141   -7.9576    8.4504 C   0  0  0  0  0  0  0  0  0  0  0  0
  -18.2454   -7.8113    9.4180 C   0  0  0  0  0  0  0  0  0  0  0  0
  -18.0057   -8.1877   10.7689 C   0  0  0  0  0  0  0  0  0  0  0  0
  -16.7386   -8.7082   11.1482 C   0  0  0  0  0  0  0  0  0  0  0  0
  -15.7113   -8.8542   10.1794 C   0  0  0  0  0  0  0  0  0  0  0  0
  -15.9489   -8.4779    8.8312 C   0  0  0  0  0  0  0  0  0  0  0  0
  2  4  1  0  0  0  0
  3  5  1  0  0  0  0
  4  7  1  0  0  0  0
  6  1  1  0  0  0  0
  7 10  1  0  0  0  0
  8  6  1  0  0  0  0
  8 11  1  0  0  0  0
  9  6  1  0  0  0  0
 10 13  1  0  0  0  0
 11 14  1  0  0  0  0
 12  9  1  0  0  0  0
 14 12  1  0  0  0  0
 14 15  1  0  0  0  0
 15 16  1  0  0  0  0
 15 17  1  0  0  0  0
 18  2  1  0  0  0  0
 18 23  2  0  0  0  0
 19  1  1  0  0  0  0
 19 18  1  0  0  0  0
 20 19  2  0  0  0  0
 21  3  1  0  0  0  0
 21 20  1  0  0  0  0
 22 21  2  0  0  0  0
 22 23  1  0  0  0  0
M  END
>  <CHROM.1>
81.18442845,-164.61758023,-73.69615940,-54.43584534,-36.30892470,178.76595725
71.36618907,59.91209439,-107.70118259,-84.64413058,-107.17436596,-19.17739658
-7.69599281,9.29390392,2.55785280,-0.35513572,1.24566962

>  <Name>
1uui_lig

>  <RI>
0

>  <Rbt.Current_Directory>
/home/itssahil/PROJECTS/Mol_Feturizer/New_Systems/rnas/1uui

>  <Rbt.Executable>
rbdock ($Id: //depot/dev/client3/rdock/2013.1/src/exe/rbdock.cxx#4 $)

>  <Rbt.Library>
libRbt.so (2013.1, Build901 2013/11/27)

>  <Rbt.Parameter_File>
/export/apps/rDock/src/rDock_2013.1_src/data/scripts/dock_solv.prm

>  <Rbt.Receptor>
prm/blind_docking_80.prm

>  <SCORE>
-37.3191

>  <SCORE.INTER>
-33.298

>  <SCORE.INTER.CONST>
1

>  <SCORE.INTER.POLAR>
-3.44303

>  <SCORE.INTER.ROT>
10

>  <SCORE.INTER.SOLV>
8.18761

>  <SCORE.INTER.VDW>
-23.7177

>  <SCORE.INTER.norm>
-1.44774

>  <SCORE.INTRA>
-4.25009

>  <SCORE.INTRA.DIHEDRAL>
-5.63645

>  <SCORE.INTRA.DIHEDRAL.0>
23.4151

>  <SCORE.INTRA.POLAR>
0

>  <SCORE.INTRA.POLAR.0>
0

>  <SCORE.INTRA.REPUL>
0

>  <SCORE.INTRA.REPUL.0>
0

>  <SCORE.INTRA.SOLV>
0.173739

>  <SCORE.INTRA.SOLV.lig_0>
-17.3568

>  <SCORE.INTRA.VDW>
-1.51873

>  <SCORE.INTRA.VDW.0>
1.0768

>  <SCORE.INTRA.norm>
-0.184786

>  <SCORE.RESTR>
0.228909

>  <SCORE.RESTR.CAVITY>
0.228909

>  <SCORE.RESTR.norm>
0.00995255

>  <SCORE.SYSTEM>
0

>  <SCORE.SYSTEM.CONST>
0

>  <SCORE.SYSTEM.DIHEDRAL>
0

>  <SCORE.SYSTEM.SOLV>
0

>  <SCORE.SYSTEM.norm>
0

>  <SCORE.heavy>
23

>  <SCORE.norm>
-1.62257

>  <RMSD>
14.611

$$$$
1uui_lig
 OpenBabel11021811413D
libRbt.so/2013.1/901 2013/11/27
 23 24  0  0  0  0  0  0  0  0999 V2000
  -19.3820   -7.3683    9.3696 C   0  0  0  0  0  0  0  0  0  0  0  0
  -17.6419   -8.1585    7.1789 O   0  0  0  0  0  0  0  0  0  0  0  0
  -15.6153   -8.6119   12.4885 O   0  0  0  0  0  0  0  0  0  0  0  0
  -17.8888   -9.4600    6.6319 C   0  0  0  0  0  0  0  0  0  0  0  0
  -16.3519   -9.6098   13.1995 C   0  0  0  0  0  0  0  0  0  0  0  0
  -19.3552   -5.8795    9.1901 N   0  0  0  0  0  0  0  0  0  0  0  0
  -18.6115   -9.3102    5.2923 C   0  0  0  0  0  0  0  0  0  0  0  0
  -19.4703   -5.1765   10.4967 C   0  0  0  0  0  0  0  0  0  0  0  0
  -20.4502   -5.4333    8.2889 C   0  0  0  0  0  0  0  0  0  0  0  0
  -18.9979  -10.6894    4.7487 C   0  0  0  0  0  0  0  0  0  0  0  0
  -20.7900   -5.5079   11.2138 C   0  0  0  0  0  0  0  0  0  0  0  0
  -21.8328   -5.8180    8.8425 C   0  0  0  0  0  0  0  0  0  0  0  0
  -18.0159  -11.1094    3.7243 N   0  0  0  0  0  0  0  0  0  0  0  0
  -21.7804   -6.1572   10.2987 N   0  0  0  0  0  0  0  0  0  0  0  0
  -22.8344   -6.9025   10.8591 C   0  0  0  0  0  0  0  0  0  0  0  0
  -22.8495   -7.1966   12.1904 N   0  0  0  0  0  0  0  0  0  0  0  0
  -23.7917   -7.4606   10.0643 N   0  0  0  0  0  0  0  0  0  0  0  0
  -17.1370   -8.2750    8.5122 C   0  0  0  0  0  0  0  0  0  0  0  0
  -17.9510   -7.9000    9.6158 C   0  0  0  0  0  0  0  0  0  0  0  0
  -17.4429   -8.0134   10.9397 C   0  0  0  0  0  0  0  0  0  0  0  0
  -16.1252   -8.5003   11.1567 C   0  0  0  0  0  0  0  0  0  0  0  0
  -15.3153   -8.8751   10.0527 C   0  0  0  0  0  0  0  0  0  0  0  0
  -15.8209   -8.7614    8.7309 C   0  0  0  0  0  0  0  0  0  0  0  0
  2  4  1  0  0  0  0
  3  5  1  0  0  0  0
  4  7  1  0  0  0  0
  6  1  1  0  0  0  0
  7 10  1  0  0  0  0
  8  6  1  0  0  0  0
  8 11  1  0  0  0  0
  9  6  1  0  0  0  0
 10 13  1  0  0  0  0
 11 14  1  0  0  0  0
 12  9  1  0  0  0  0
 14 12  1  0  0  0  0
 14 15  1  0  0  0  0
 15 16  1  0  0  0  0
 15 17  1  0  0  0  0
 18  2  1  0  0  0  0
 18 23  2  0  0  0  0
 19  1  1  0  0  0  0
 19 18  1  0  0  0  0
 20 19  2  0  0  0  0
 21  3  1  0  0  0  0
 21 20  1  0  0  0  0
 22 21  2  0  0  0  0
 22 23  1  0  0  0  0
M  END
>  <CHROM.1>
171.96485834,-174.93822994,-88.00833163,-99.80651531,173.09886127,-9.57307997
-74.62857979,69.55825135,-109.07278953,-89.14273095,66.22250838,-18.98842245
-7.85510334,9.23261730,2.32890350,-0.38363151,1.24133474

>  <Name>
1uui_lig

>  <RI>
0

>  <Rbt.Current_Directory>
/home/itssahil/PROJECTS/Mol_Feturizer/New_Systems/rnas/1uui

>  <Rbt.Executable>
rbdock ($Id: //depot/dev/client3/rdock/2013.1/src/exe/rbdock.cxx#4 $)

>  <Rbt.Library>
libRbt.so (2013.1, Build901 2013/11/27)

>  <Rbt.Parameter_File>
/export/apps/rDock/src/rDock_2013.1_src/data/scripts/dock_solv.prm

>  <Rbt.Receptor>
prm/blind_docking_40.prm

>  <SCORE>
-40.2222

>  <SCORE.INTER>
-36.1481

>  <SCORE.INTER.CONST>
1

>  <SCORE.INTER.POLAR>
-3.8529

>  <SCORE.INTER.ROT>
10

>  <SCORE.INTER.SOLV>
9.62646

>  <SCORE.INTER.VDW>
-24.7312

>  <SCORE.INTER.norm>
-1.57166

>  <SCORE.INTRA>
-4.0996

>  <SCORE.INTRA.DIHEDRAL>
-4.41606

>  <SCORE.INTRA.DIHEDRAL.0>
23.4151

>  <SCORE.INTRA.POLAR>
0

>  <SCORE.INTRA.POLAR.0>
0

>  <SCORE.INTRA.REPUL>
0

>  <SCORE.INTRA.REPUL.0>
0

>  <SCORE.INTRA.SOLV>
0.0650721

>  <SCORE.INTRA.SOLV.lig_0>
-17.3568

>  <SCORE.INTRA.VDW>
-1.9241

>  <SCORE.INTRA.VDW.0>
1.0768

>  <SCORE.INTRA.norm>
-0.178243

>  <SCORE.RESTR>
0.0254515

>  <SCORE.RESTR.CAVITY>
0.0254515

>  <SCORE.RESTR.norm>
0.00110659

>  <SCORE.SYSTEM>
0

>  <SCORE.SYSTEM.CONST>
0

>  <SCORE.SYSTEM.DIHEDRAL>
0

>  <SCORE.SYSTEM.SOLV>
0

>  <SCORE.SYSTEM.norm>
0

>  <SCORE.heavy>
23

>  <SCORE.norm>
-1.74879

>  <RMSD>
14.615

$$$$
1uui_lig
 OpenBabel11021811413D
libRbt.so/2013.1/901 2013/11/27
 23 24  0  0  0  0  0  0  0  0999 V2000
  -19.5871   -6.9573   10.3127 C   0  0  0  0  0  0  0  0  0  0  0  0
  -18.4407   -7.3182    7.6656 O   0  0  0  0  0  0  0  0  0  0  0  0
  -15.4736   -9.2389   12.1389 O   0  0  0  0  0  0  0  0  0  0  0  0
  -19.5437   -8.1912    7.3913 C   0  0  0  0  0  0  0  0  0  0  0  0
  -15.5326   -8.2791   13.1970 C   0  0  0  0  0  0  0  0  0  0  0  0
  -19.4480   -5.8220   11.2829 N   0  0  0  0  0  0  0  0  0  0  0  0
  -20.4799   -7.5141    6.3892 C   0  0  0  0  0  0  0  0  0  0  0  0
  -20.4337   -5.9364   12.3920 C   0  0  0  0  0  0  0  0  0  0  0  0
  -19.6219   -4.5138   10.5981 C   0  0  0  0  0  0  0  0  0  0  0  0
  -19.7601   -7.3160    5.0514 C   0  0  0  0  0  0  0  0  0  0  0  0
  -21.8833   -5.8998   11.8791 C   0  0  0  0  0  0  0  0  0  0  0  0
  -21.0043   -4.4009    9.9331 C   0  0  0  0  0  0  0  0  0  0  0  0
  -18.7700   -6.2235    5.1803 N   0  0  0  0  0  0  0  0  0  0  0  0
  -21.9688   -5.4125   10.4667 N   0  0  0  0  0  0  0  0  0  0  0  0
  -23.1167   -5.7180    9.7122 C   0  0  0  0  0  0  0  0  0  0  0  0
  -23.7618   -4.7497    9.0014 N   0  0  0  0  0  0  0  0  0  0  0  0
  -23.6865   -6.9550    9.7816 N   0  0  0  0  0  0  0  0  0  0  0  0
  -17.6999   -7.8027    8.7892 C   0  0  0  0  0  0  0  0  0  0  0  0
  -18.2197   -7.6483   10.1034 C   0  0  0  0  0  0  0  0  0  0  0  0
  -17.4772   -8.1278   11.2181 C   0  0  0  0  0  0  0  0  0  0  0  0
  -16.2197   -8.7590   11.0168 C   0  0  0  0  0  0  0  0  0  0  0  0
  -15.7038   -8.9129    9.7032 C   0  0  0  0  0  0  0  0  0  0  0  0
  -16.4435   -8.4338    8.5900 C   0  0  0  0  0  0  0  0  0  0  0  0
  2  4  1  0  0  0  0
  3  5  1  0  0  0  0
  4  7  1  0  0  0  0
  6  1  1  0  0  0  0
  7 10  1  0  0  0  0
  8  6  1  0  0  0  0
  8 11  1  0  0  0  0
  9  6  1  0  0  0  0
 10 13  1  0  0  0  0
 11 14  1  0  0  0  0
 12  9  1  0  0  0  0
 14 12  1  0  0  0  0
 14 15  1  0  0  0  0
 15 16  1  0  0  0  0
 15 17  1  0  0  0  0
 18  2  1  0  0  0  0
 18 23  2  0  0  0  0
 19  1  1  0  0  0  0
 19 18  1  0  0  0  0
 20 19  2  0  0  0  0
 21  3  1  0  0  0  0
 21 20  1  0  0  0  0
 22 21  2  0  0  0  0
 22 23  1  0  0  0  0
M  END
>  <CHROM.1>
168.38596931,64.31607773,-127.06976738,-73.35308660,174.55051146,131.99687878
-59.14714978,-82.48757476,-75.07096256,-125.69118821,-42.08481287,-19.37294527
-6.92583907,9.61004832,0.21466608,-0.45673638,1.47589069

>  <Name>
1uui_lig

>  <RI>
0

>  <Rbt.Current_Directory>
/home/itssahil/PROJECTS/Mol_Feturizer/New_Systems/rnas/1uui

>  <Rbt.Executable>
rbdock ($Id: //depot/dev/client3/rdock/2013.1/src/exe/rbdock.cxx#4 $)

>  <Rbt.Library>
libRbt.so (2013.1, Build901 2013/11/27)

>  <Rbt.Parameter_File>
/export/apps/rDock/src/rDock_2013.1_src/data/scripts/dock_solv.prm

>  <Rbt.Receptor>
prm/blind_docking_100.prm

>  <SCORE>
-25.199

>  <SCORE.INTER>
-20.2006

>  <SCORE.INTER.CONST>
1

>  <SCORE.INTER.POLAR>
-1.64393

>  <SCORE.INTER.ROT>
10

>  <SCORE.INTER.SOLV>
9.66495

>  <SCORE.INTER.VDW>
-21.4756

>  <SCORE.INTER.norm>
-0.878285

>  <SCORE.INTRA>
-5.81796

>  <SCORE.INTRA.DIHEDRAL>
-7.67002

>  <SCORE.INTRA.DIHEDRAL.0>
23.4151

>  <SCORE.INTRA.POLAR>
-0.629258

>  <SCORE.INTRA.POLAR.0>
0

>  <SCORE.INTRA.REPUL>
0

>  <SCORE.INTRA.REPUL.0>
0

>  <SCORE.INTRA.SOLV>
0.467624

>  <SCORE.INTRA.SOLV.lig_0>
-17.3568

>  <SCORE.INTRA.VDW>
-0.0772867

>  <SCORE.INTRA.VDW.0>
1.0768

>  <SCORE.INTRA.norm>
-0.252955

>  <SCORE.RESTR>
0.819476

>  <SCORE.RESTR.CAVITY>
0.819476

>  <SCORE.RESTR.norm>
0.0356294

>  <SCORE.SYSTEM>
0

>  <SCORE.SYSTEM.CONST>
0

>  <SCORE.SYSTEM.DIHEDRAL>
0

>  <SCORE.SYSTEM.SOLV>
0

>  <SCORE.SYSTEM.norm>
0

>  <SCORE.heavy>
23

>  <SCORE.norm>
-1.09561

>  <RMSD>
14.622

$$$$
1uui_lig
 OpenBabel11021811413D
libRbt.so/2013.1/901 2013/11/27
 23 24  0  0  0  0  0  0  0  0999 V2000
  -19.8693   -7.2198    9.2163 C   0  0  0  0  0  0  0  0  0  0  0  0
  -18.3692   -8.0725    6.8766 O   0  0  0  0  0  0  0  0  0  0  0  0
  -16.0732   -9.0259   12.0072 O   0  0  0  0  0  0  0  0  0  0  0  0
  -17.4565   -8.4802    5.8496 C   0  0  0  0  0  0  0  0  0  0  0  0
  -16.0902   -7.8158   12.7684 C   0  0  0  0  0  0  0  0  0  0  0  0
  -19.7455   -5.7654    9.5613 N   0  0  0  0  0  0  0  0  0  0  0  0
  -18.1603   -8.3985    4.4942 C   0  0  0  0  0  0  0  0  0  0  0  0
  -19.7429   -5.5590   11.0351 C   0  0  0  0  0  0  0  0  0  0  0  0
  -20.8507   -4.9791    8.9525 C   0  0  0  0  0  0  0  0  0  0  0  0
  -19.1571   -9.5531    4.3514 C   0  0  0  0  0  0  0  0  0  0  0  0
  -21.0445   -6.0552   11.6876 C   0  0  0  0  0  0  0  0  0  0  0  0
  -22.2270   -5.4649    9.4382 C   0  0  0  0  0  0  0  0  0  0  0  0
  -18.4502  -10.7585    3.8637 N   0  0  0  0  0  0  0  0  0  0  0  0
  -22.1242   -6.2941   10.6793 N   0  0  0  0  0  0  0  0  0  0  0  0
  -23.1986   -7.1357   11.0227 C   0  0  0  0  0  0  0  0  0  0  0  0
  -24.1113   -7.5188   10.0850 N   0  0  0  0  0  0  0  0  0  0  0  0
  -23.4276   -7.4768   12.3230 N   0  0  0  0  0  0  0  0  0  0  0  0
  -17.7969   -8.3141    8.1651 C   0  0  0  0  0  0  0  0  0  0  0  0
  -18.4931   -7.9142    9.3384 C   0  0  0  0  0  0  0  0  0  0  0  0
  -17.9178   -8.1525   10.6175 C   0  0  0  0  0  0  0  0  0  0  0  0
  -16.6509   -8.7887   10.7203 C   0  0  0  0  0  0  0  0  0  0  0  0
  -15.9588   -9.1881    9.5470 C   0  0  0  0  0  0  0  0  0  0  0  0
  -16.5314   -8.9497    8.2698 C   0  0  0  0  0  0  0  0  0  0  0  0
  2  4  1  0  0  0  0
  3  5  1  0  0  0  0
  4  7  1  0  0  0  0
  6  1  1  0  0  0  0
  7 10  1  0  0  0  0
  8  6  1  0  0  0  0
  8 11  1  0  0  0  0
  9  6  1  0  0  0  0
 10 13  1  0  0  0  0
 11 14  1  0  0  0  0
 12  9  1  0  0  0  0
 14 12  1  0  0  0  0
 14 15  1  0  0  0  0
 15 16  1  0  0  0  0
 15 17  1  0  0  0  0
 18  2  1  0  0  0  0
 18 23  2  0  0  0  0
 19  1  1  0  0  0  0
 19 18  1  0  0  0  0
 20 19  2  0  0  0  0
 21  3  1  0  0  0  0
 21 20  1  0  0  0  0
 22 21  2  0  0  0  0
 22 23  1  0  0  0  0
M  END
>  <CHROM.1>
172.09216554,-73.99061697,-80.65636853,-84.47211244,171.83715659,-171.51477244
72.25550800,50.59680179,176.32426836,-107.96668440,-50.67623074,-19.33358914
-7.70425707,9.14533800,2.27151148,-0.31262372,1.32493670

>  <Name>
1uui_lig

>  <RI>
0

>  <Rbt.Current_Directory>
/home/itssahil/PROJECTS/Mol_Feturizer/New_Systems/rnas/1uui

>  <Rbt.Executable>
rbdock ($Id: //depot/dev/client3/rdock/2013.1/src/exe/rbdock.cxx#4 $)

>  <Rbt.Library>
libRbt.so (2013.1, Build901 2013/11/27)

>  <Rbt.Parameter_File>
/export/apps/rDock/src/rDock_2013.1_src/data/scripts/dock_solv.prm

>  <Rbt.Receptor>
prm/blind_docking_80.prm

>  <SCORE>
-38.9195

>  <SCORE.INTER>
-37.202

>  <SCORE.INTER.CONST>
1

>  <SCORE.INTER.POLAR>
-4.18676

>  <SCORE.INTER.ROT>
10

>  <SCORE.INTER.SOLV>
9.49487

>  <SCORE.INTER.VDW>
-24.2771

>  <SCORE.INTER.norm>
-1.61748

>  <SCORE.INTRA>
-2.3121

>  <SCORE.INTRA.DIHEDRAL>
-11.9431

>  <SCORE.INTRA.DIHEDRAL.0>
23.4151

>  <SCORE.INTRA.POLAR>
0

>  <SCORE.INTRA.POLAR.0>
0

>  <SCORE.INTRA.REPUL>
0

>  <SCORE.INTRA.REPUL.0>
0

>  <SCORE.INTRA.SOLV>
0.11298

>  <SCORE.INTRA.SOLV.lig_0>
-17.3568

>  <SCORE.INTRA.VDW>
3.60295

>  <SCORE.INTRA.VDW.0>
1.0768

>  <SCORE.INTRA.norm>
-0.100526

>  <SCORE.RESTR>
0.594645

>  <SCORE.RESTR.CAVITY>
0.594645

>  <SCORE.RESTR.norm>
0.0258541

>  <SCORE.SYSTEM>
0

>  <SCORE.SYSTEM.CONST>
0

>  <SCORE.SYSTEM.DIHEDRAL>
0

>  <SCORE.SYSTEM.SOLV>
0

>  <SCORE.SYSTEM.norm>
0

>  <SCORE.heavy>
23

>  <SCORE.norm>
-1.69215

>  <RMSD>
14.623

$$$$
1uui_lig
 OpenBabel11021811413D
libRbt.so/2013.1/901 2013/11/27
 23 24  0  0  0  0  0  0  0  0999 V2000
  -20.9167   -6.8063    8.2159 C   0  0  0  0  0  0  0  0  0  0  0  0
  -21.2399   -8.9799    6.3126 O   0  0  0  0  0  0  0  0  0  0  0  0
  -16.0658   -8.1526    8.5594 O   0  0  0  0  0  0  0  0  0  0  0  0
  -21.4706   -8.0366    5.2586 C   0  0  0  0  0  0  0  0  0  0  0  0
  -15.9507   -8.8856    9.7815 C   0  0  0  0  0  0  0  0  0  0  0  0
  -21.4412   -7.2014    9.5643 N   0  0  0  0  0  0  0  0  0  0  0  0
  -22.7661   -8.4041    4.5336 C   0  0  0  0  0  0  0  0  0  0  0  0
  -22.8643   -6.7984    9.7289 C   0  0  0  0  0  0  0  0  0  0  0  0
  -20.6257   -6.5957   10.6499 C   0  0  0  0  0  0  0  0  0  0  0  0
  -22.5236   -9.5931    3.5983 C   0  0  0  0  0  0  0  0  0  0  0  0
  -23.0474   -5.2754    9.6163 C   0  0  0  0  0  0  0  0  0  0  0  0
  -20.6297   -5.0594   10.5725 C   0  0  0  0  0  0  0  0  0  0  0  0
  -22.2459  -10.8047    4.4016 N   0  0  0  0  0  0  0  0  0  0  0  0
  -21.7469   -4.5426    9.7221 N   0  0  0  0  0  0  0  0  0  0  0  0
  -21.6649   -3.2305    9.2200 C   0  0  0  0  0  0  0  0  0  0  0  0
  -22.6323   -2.7381    8.3949 N   0  0  0  0  0  0  0  0  0  0  0  0
  -20.5537   -2.4704    9.4367 N   0  0  0  0  0  0  0  0  0  0  0  0
  -19.9435   -8.7728    6.8806 C   0  0  0  0  0  0  0  0  0  0  0  0
  -19.7366   -7.7218    7.8153 C   0  0  0  0  0  0  0  0  0  0  0  0
  -18.4445   -7.5169    8.3741 C   0  0  0  0  0  0  0  0  0  0  0  0
  -17.3647   -8.3613    7.9979 C   0  0  0  0  0  0  0  0  0  0  0  0
  -17.5748   -9.4107    7.0652 C   0  0  0  0  0  0  0  0  0  0  0  0
  -18.8636   -9.6155    6.5061 C   0  0  0  0  0  0  0  0  0  0  0  0
  2  4  1  0  0  0  0
  3  5  1  0  0  0  0
  4  7  1  0  0  0  0
  6  1  1  0  0  0  0
  7 10  1  0  0  0  0
  8  6  1  0  0  0  0
  8 11  1  0  0  0  0
  9  6  1  0  0  0  0
 10 13  1  0  0  0  0
 11 14  1  0  0  0  0
 12  9  1  0  0  0  0
 14 12  1  0  0  0  0
 14 15  1  0  0  0  0
 15 16  1  0  0  0  0
 15 17  1  0  0  0  0
 18  2  1  0  0  0  0
 18 23  2  0  0  0  0
 19  1  1  0  0  0  0
 19 18  1  0  0  0  0
 20 19  2  0  0  0  0
 21  3  1  0  0  0  0
 21 20  1  0  0  0  0
 22 21  2  0  0  0  0
 22 23  1  0  0  0  0
M  END
>  <CHROM.1>
171.76889148,-77.05272161,-155.14307002,67.88136405,-157.60168117,-14.52452455
-35.18540273,-153.14545058,79.31455588,102.37478580,88.08976366,-20.48805642
-7.15166526,7.91534540,1.80063283,-0.43382039,0.71803232

>  <Name>
1uui_lig

>  <RI>
0

>  <Rbt.Current_Directory>
/home/itssahil/PROJECTS/Mol_Feturizer/New_Systems/rnas/1uui

>  <Rbt.Executable>
rbdock ($Id: //depot/dev/client3/rdock/2013.1/src/exe/rbdock.cxx#4 $)

>  <Rbt.Library>
libRbt.so (2013.1, Build901 2013/11/27)

>  <Rbt.Parameter_File>
/export/apps/rDock/src/rDock_2013.1_src/data/scripts/dock_solv.prm

>  <Rbt.Receptor>
prm/blind_docking_60.prm

>  <SCORE>
-22.2889

>  <SCORE.INTER>
-15.3599

>  <SCORE.INTER.CONST>
1

>  <SCORE.INTER.POLAR>
-1.72914

>  <SCORE.INTER.ROT>
10

>  <SCORE.INTER.SOLV>
6.29426

>  <SCORE.INTER.VDW>
-16.8409

>  <SCORE.INTER.norm>
-0.667823

>  <SCORE.INTRA>
-6.93404

>  <SCORE.INTRA.DIHEDRAL>
-5.68948

>  <SCORE.INTRA.DIHEDRAL.0>
23.4151

>  <SCORE.INTRA.POLAR>
-0.800085

>  <SCORE.INTRA.POLAR.0>
0

>  <SCORE.INTRA.REPUL>
0

>  <SCORE.INTRA.REPUL.0>
0

>  <SCORE.INTRA.SOLV>
0.587253

>  <SCORE.INTRA.SOLV.lig_0>
-17.3568

>  <SCORE.INTRA.VDW>
-1.66264

>  <SCORE.INTRA.VDW.0>
1.0768

>  <SCORE.INTRA.norm>
-0.30148

>  <SCORE.RESTR>
0.00506173

>  <SCORE.RESTR.CAVITY>
0.00506173

>  <SCORE.RESTR.norm>
0.000220075

>  <SCORE.SYSTEM>
0

>  <SCORE.SYSTEM.CONST>
0

>  <SCORE.SYSTEM.DIHEDRAL>
0

>  <SCORE.SYSTEM.SOLV>
0

>  <SCORE.SYSTEM.norm>
0

>  <SCORE.heavy>
23

>  <SCORE.norm>
-0.969083

>  <RMSD>
14.625

$$$$
1uui_lig
 OpenBabel11021811413D
libRbt.so/2013.1/901 2013/11/27
 23 24  0  0  0  0  0  0  0  0999 V2000
  -19.9979   -5.6178    8.6838 C   0  0  0  0  0  0  0  0  0  0  0  0
  -19.6676   -5.7469   11.5692 O   0  0  0  0  0  0  0  0  0  0  0  0
  -16.1041   -8.8086    8.3394 O   0  0  0  0  0  0  0  0  0  0  0  0
  -20.4010   -6.6153   12.4422 C   0  0  0  0  0  0  0  0  0  0  0  0
  -16.8373   -9.8313    7.6608 C   0  0  0  0  0  0  0  0  0  0  0  0
  -19.4207   -4.8137    7.5569 N   0  0  0  0  0  0  0  0  0  0  0  0
  -21.8728   -6.1993   12.4400 C   0  0  0  0  0  0  0  0  0  0  0  0
  -19.3269   -3.3724    7.9154 C   0  0  0  0  0  0  0  0  0  0  0  0
  -20.2368   -4.9657    6.3235 C   0  0  0  0  0  0  0  0  0  0  0  0
  -22.7477   -7.3667   12.9078 C   0  0  0  0  0  0  0  0  0  0  0  0
  -20.7060   -2.7659    8.2253 C   0  0  0  0  0  0  0  0  0  0  0  0
  -21.6868   -4.5009    6.5418 C   0  0  0  0  0  0  0  0  0  0  0  0
  -22.5257   -8.5344   12.0260 N   0  0  0  0  0  0  0  0  0  0  0  0
  -21.8248   -3.6447    7.7609 N   0  0  0  0  0  0  0  0  0  0  0  0
  -23.1015   -3.4740    8.3278 C   0  0  0  0  0  0  0  0  0  0  0  0
  -23.6870   -2.2434    8.3693 N   0  0  0  0  0  0  0  0  0  0  0  0
  -23.7228   -4.5059    8.9672 N   0  0  0  0  0  0  0  0  0  0  0  0
  -18.7722   -6.5113   10.7567 C   0  0  0  0  0  0  0  0  0  0  0  0
  -18.8954   -6.4804    9.3406 C   0  0  0  0  0  0  0  0  0  0  0  0
  -18.0054   -7.2457    8.5368 C   0  0  0  0  0  0  0  0  0  0  0  0
  -16.9968   -8.0382    9.1492 C   0  0  0  0  0  0  0  0  0  0  0  0
  -16.8756   -8.0660   10.5633 C   0  0  0  0  0  0  0  0  0  0  0  0
  -17.7638   -7.3035   11.3666 C   0  0  0  0  0  0  0  0  0  0  0  0
  2  4  1  0  0  0  0
  3  5  1  0  0  0  0
  4  7  1  0  0  0  0
  6  1  1  0  0  0  0
  7 10  1  0  0  0  0
  8  6  1  0  0  0  0
  8 11  1  0  0  0  0
  9  6  1  0  0  0  0
 10 13  1  0  0  0  0
 11 14  1  0  0  0  0
 12  9  1  0  0  0  0
 14 12  1  0  0  0  0
 14 15  1  0  0  0  0
 15 16  1  0  0  0  0
 15 17  1  0  0  0  0
 18  2  1  0  0  0  0
 18 23  2  0  0  0  0
 19  1  1  0  0  0  0
 19 18  1  0  0  0  0
 20 19  2  0  0  0  0
 21  3  1  0  0  0  0
 21 20  1  0  0  0  0
 22 21  2  0  0  0  0
 22 23  1  0  0  0  0
M  END
>  <CHROM.1>
-135.65053554,158.82519784,-107.85593901,-57.79591244,-47.13376066,51.87741588
-57.03866604,119.29259696,119.78992444,133.00116273,-65.68967088,-20.12764247
-5.93486265,9.38147622,-2.58411472,-0.54612848,2.19070106

>  <Name>
1uui_lig

>  <RI>
0

>  <Rbt.Current_Directory>
/home/itssahil/PROJECTS/Mol_Feturizer/New_Systems/rnas/1uui

>  <Rbt.Executable>
rbdock ($Id: //depot/dev/client3/rdock/2013.1/src/exe/rbdock.cxx#4 $)

>  <Rbt.Library>
libRbt.so (2013.1, Build901 2013/11/27)

>  <Rbt.Parameter_File>
/export/apps/rDock/src/rDock_2013.1_src/data/scripts/dock_solv.prm

>  <Rbt.Receptor>
prm/blind_docking_40.prm

>  <SCORE>
-23.6528

>  <SCORE.INTER>
-22.1862

>  <SCORE.INTER.CONST>
1

>  <SCORE.INTER.POLAR>
-2.45161

>  <SCORE.INTER.ROT>
10

>  <SCORE.INTER.SOLV>
7.60267

>  <SCORE.INTER.VDW>
-19.4196

>  <SCORE.INTER.norm>
-0.964615

>  <SCORE.INTRA>
-1.46664

>  <SCORE.INTRA.DIHEDRAL>
-0.210257

>  <SCORE.INTRA.DIHEDRAL.0>
23.4151

>  <SCORE.INTRA.POLAR>
0

>  <SCORE.INTRA.POLAR.0>
0

>  <SCORE.INTRA.REPUL>
0

>  <SCORE.INTRA.REPUL.0>
0

>  <SCORE.INTRA.SOLV>
0.116989

>  <SCORE.INTRA.SOLV.lig_0>
-17.3568

>  <SCORE.INTRA.VDW>
-1.42

>  <SCORE.INTRA.VDW.0>
1.0768

>  <SCORE.INTRA.norm>
-0.0637668

>  <SCORE.RESTR>
0

>  <SCORE.RESTR.CAVITY>
0

>  <SCORE.RESTR.norm>
0

>  <SCORE.SYSTEM>
0

>  <SCORE.SYSTEM.CONST>
0

>  <SCORE.SYSTEM.DIHEDRAL>
0

>  <SCORE.SYSTEM.SOLV>
0

>  <SCORE.SYSTEM.norm>
0

>  <SCORE.heavy>
23

>  <SCORE.norm>
-1.02838

>  <RMSD>
14.639

$$$$
1uui_lig
 OpenBabel11021811413D
libRbt.so/2013.1/901 2013/11/27
 23 24  0  0  0  0  0  0  0  0999 V2000
  -20.1700   -7.5053    9.3210 C   0  0  0  0  0  0  0  0  0  0  0  0
  -19.0693   -8.4375    6.7969 O   0  0  0  0  0  0  0  0  0  0  0  0
  -15.6468   -8.4321   11.3565 O   0  0  0  0  0  0  0  0  0  0  0  0
  -19.7974   -9.6700    6.7262 C   0  0  0  0  0  0  0  0  0  0  0  0
  -16.3012   -9.0836   12.4480 C   0  0  0  0  0  0  0  0  0  0  0  0
  -20.2882   -6.0953    8.8235 N   0  0  0  0  0  0  0  0  0  0  0  0
  -19.0087  -10.6684    5.8774 C   0  0  0  0  0  0  0  0  0  0  0  0
  -19.6212   -5.1391    9.7485 C   0  0  0  0  0  0  0  0  0  0  0  0
  -21.7140   -5.7092    8.6550 C   0  0  0  0  0  0  0  0  0  0  0  0
  -18.9617  -10.1953    4.4210 C   0  0  0  0  0  0  0  0  0  0  0  0
  -20.2502   -5.1631   11.1520 C   0  0  0  0  0  0  0  0  0  0  0  0
  -22.4893   -5.8098    9.9797 C   0  0  0  0  0  0  0  0  0  0  0  0
  -18.1714  -11.1532    3.6159 N   0  0  0  0  0  0  0  0  0  0  0  0
  -21.5755   -5.8582   11.1633 N   0  0  0  0  0  0  0  0  0  0  0  0
  -22.0743   -6.3474   12.3849 C   0  0  0  0  0  0  0  0  0  0  0  0
  -21.2940   -6.3568   13.5029 N   0  0  0  0  0  0  0  0  0  0  0  0
  -23.2984   -6.9452   12.4475 N   0  0  0  0  0  0  0  0  0  0  0  0
  -18.2136   -8.4389    7.9431 C   0  0  0  0  0  0  0  0  0  0  0  0
  -18.7071   -7.9912    9.1991 C   0  0  0  0  0  0  0  0  0  0  0  0
  -17.8510   -7.9901   10.3352 C   0  0  0  0  0  0  0  0  0  0  0  0
  -16.5067   -8.4356   10.2134 C   0  0  0  0  0  0  0  0  0  0  0  0
  -16.0173   -8.8832    8.9583 C   0  0  0  0  0  0  0  0  0  0  0  0
  -16.8704   -8.8837    7.8234 C   0  0  0  0  0  0  0  0  0  0  0  0
  2  4  1  0  0  0  0
  3  5  1  0  0  0  0
  4  7  1  0  0  0  0
  6  1  1  0  0  0  0
  7 10  1  0  0  0  0
  8  6  1  0  0  0  0
  8 11  1  0  0  0  0
  9  6  1  0  0  0  0
 10 13  1  0  0  0  0
 11 14  1  0  0  0  0
 12  9  1  0  0  0  0
 14 12  1  0  0  0  0
 14 15  1  0  0  0  0
 15 16  1  0  0  0  0
 15 17  1  0  0  0  0
 18  2  1  0  0  0  0
 18 23  2  0  0  0  0
 19  1  1  0  0  0  0
 19 18  1  0  0  0  0
 20 19  2  0  0  0  0
 21  3  1  0  0  0  0
 21 20  1  0  0  0  0
 22 21  2  0  0  0  0
 22 23  1  0  0  0  0
M  END
>  <CHROM.1>
-91.52526131,-67.07672733,-70.10940000,178.76664327,62.04570398,-8.94954108
-123.45884115,-31.36601397,-87.65972758,-80.07167000,50.25946074,-19.33544118
-7.80587289,9.24896095,2.05477002,-0.40046098,1.18919042

>  <Name>
1uui_lig

>  <RI>
0

>  <Rbt.Current_Directory>
/home/itssahil/PROJECTS/Mol_Feturizer/New_Systems/rnas/1uui

>  <Rbt.Executable>
rbdock ($Id: //depot/dev/client3/rdock/2013.1/src/exe/rbdock.cxx#4 $)

>  <Rbt.Library>
libRbt.so (2013.1, Build901 2013/11/27)

>  <Rbt.Parameter_File>
/export/apps/rDock/src/rDock_2013.1_src/data/scripts/dock_solv.prm

>  <Rbt.Receptor>
prm/blind_docking_80.prm

>  <SCORE>
-32.1531

>  <SCORE.INTER>
-29.1741

>  <SCORE.INTER.CONST>
1

>  <SCORE.INTER.POLAR>
-3.44781

>  <SCORE.INTER.ROT>
10

>  <SCORE.INTER.SOLV>
8.69354

>  <SCORE.INTER.VDW>
-21.1212

>  <SCORE.INTER.norm>
-1.26844

>  <SCORE.INTRA>
-3.89284

>  <SCORE.INTRA.DIHEDRAL>
-7.06048

>  <SCORE.INTRA.DIHEDRAL.0>
23.4151

>  <SCORE.INTRA.POLAR>
0

>  <SCORE.INTRA.POLAR.0>
0

>  <SCORE.INTRA.REPUL>
0

>  <SCORE.INTRA.REPUL.0>
0

>  <SCORE.INTRA.SOLV>
0.187187

>  <SCORE.INTRA.SOLV.lig_0>
-17.3568

>  <SCORE.INTRA.VDW>
-0.456195

>  <SCORE.INTRA.VDW.0>
1.0768

>  <SCORE.INTRA.norm>
-0.169254

>  <SCORE.RESTR>
0.913758

>  <SCORE.RESTR.CAVITY>
0.913758

>  <SCORE.RESTR.norm>
0.0397286

>  <SCORE.SYSTEM>
0

>  <SCORE.SYSTEM.CONST>
0

>  <SCORE.SYSTEM.DIHEDRAL>
0

>  <SCORE.SYSTEM.SOLV>
0

>  <SCORE.SYSTEM.norm>
0

>  <SCORE.heavy>
23

>  <SCORE.norm>
-1.39796

>  <RMSD>
14.649

$$$$
1uui_lig
 OpenBabel11021811413D
libRbt.so/2013.1/901 2013/11/27
 23 24  0  0  0  0  0  0  0  0999 V2000
  -20.6115   -7.0241    8.6717 C   0  0  0  0  0  0  0  0  0  0  0  0
  -20.7565   -8.2516    6.0404 O   0  0  0  0  0  0  0  0  0  0  0  0
  -15.7722   -8.4478    8.8013 O   0  0  0  0  0  0  0  0  0  0  0  0
  -20.7457   -7.1776    5.0915 C   0  0  0  0  0  0  0  0  0  0  0  0
  -15.9592   -9.0452   10.0867 C   0  0  0  0  0  0  0  0  0  0  0  0
  -20.4732   -5.5340    8.5724 N   0  0  0  0  0  0  0  0  0  0  0  0
  -22.1827   -6.7179    4.8407 C   0  0  0  0  0  0  0  0  0  0  0  0
  -19.7770   -4.9762    9.7636 C   0  0  0  0  0  0  0  0  0  0  0  0
  -21.8032   -4.8857    8.4267 C   0  0  0  0  0  0  0  0  0  0  0  0
  -23.0598   -7.9186    4.4720 C   0  0  0  0  0  0  0  0  0  0  0  0
  -20.5471   -5.2594   11.0646 C   0  0  0  0  0  0  0  0  0  0  0  0
  -22.7200   -5.1969    9.6221 C   0  0  0  0  0  0  0  0  0  0  0  0
  -23.9936   -7.5344    3.3899 N   0  0  0  0  0  0  0  0  0  0  0  0
  -21.9521   -5.7028   10.8022 N   0  0  0  0  0  0  0  0  0  0  0  0
  -22.6417   -6.4029   11.8096 C   0  0  0  0  0  0  0  0  0  0  0  0
  -22.2259   -6.3470   13.1069 N   0  0  0  0  0  0  0  0  0  0  0  0
  -23.6563   -7.2574   11.4937 N   0  0  0  0  0  0  0  0  0  0  0  0
  -19.5080   -8.3030    6.7366 C   0  0  0  0  0  0  0  0  0  0  0  0
  -19.3885   -7.7158    8.0259 C   0  0  0  0  0  0  0  0  0  0  0  0
  -18.1435   -7.7654    8.7126 C   0  0  0  0  0  0  0  0  0  0  0  0
  -17.0237   -8.4005    8.1101 C   0  0  0  0  0  0  0  0  0  0  0  0
  -17.1465   -8.9870    6.8232 C   0  0  0  0  0  0  0  0  0  0  0  0
  -18.3882   -8.9372    6.1365 C   0  0  0  0  0  0  0  0  0  0  0  0
  2  4  1  0  0  0  0
  3  5  1  0  0  0  0
  4  7  1  0  0  0  0
  6  1  1  0  0  0  0
  7 10  1  0  0  0  0
  8  6  1  0  0  0  0
  8 11  1  0  0  0  0
  9  6  1  0  0  0  0
 10 13  1  0  0  0  0
 11 14  1  0  0  0  0
 12  9  1  0  0  0  0
 14 12  1  0  0  0  0
 14 15  1  0  0  0  0
 15 16  1  0  0  0  0
 15 17  1  0  0  0  0
 18  2  1  0  0  0  0
 18 23  2  0  0  0  0
 19  1  1  0  0  0  0
 19 18  1  0  0  0  0
 20 19  2  0  0  0  0
 21  3  1  0  0  0  0
 21 20  1  0  0  0  0
 22 21  2  0  0  0  0
 22 23  1  0  0  0  0
M  END
>  <CHROM.1>
-154.09984220,-52.22600279,-90.47815273,-139.80016807,-62.39309381,19.06247647
-153.34546166,105.15244053,98.40494974,-103.28199753,55.37663996,-20.44430703
-7.10748083,8.29538484,1.83316879,-0.33333975,1.32478748

>  <Name>
1uui_lig

>  <RI>
0

>  <Rbt.Current_Directory>
/home/itssahil/PROJECTS/Mol_Feturizer/New_Systems/rnas/1uui

>  <Rbt.Executable>
rbdock ($Id: //depot/dev/client3/rdock/2013.1/src/exe/rbdock.cxx#4 $)

>  <Rbt.Library>
libRbt.so (2013.1, Build901 2013/11/27)

>  <Rbt.Parameter_File>
/export/apps/rDock/src/rDock_2013.1_src/data/scripts/dock_solv.prm

>  <Rbt.Receptor>
prm/blind_docking_60.prm

>  <SCORE>
-22.9917

>  <SCORE.INTER>
-21.0359

>  <SCORE.INTER.CONST>
1

>  <SCORE.INTER.POLAR>
-2.29595

>  <SCORE.INTER.ROT>
10

>  <SCORE.INTER.SOLV>
8.71658

>  <SCORE.INTER.VDW>
-19.5429

>  <SCORE.INTER.norm>
-0.914602

>  <SCORE.INTRA>
-2.44933

>  <SCORE.INTRA.DIHEDRAL>
-2.07474

>  <SCORE.INTRA.DIHEDRAL.0>
23.4151

>  <SCORE.INTRA.POLAR>
0

>  <SCORE.INTRA.POLAR.0>
0

>  <SCORE.INTRA.REPUL>
0

>  <SCORE.INTRA.REPUL.0>
0

>  <SCORE.INTRA.SOLV>
0.10868

>  <SCORE.INTRA.SOLV.lig_0>
-17.3568

>  <SCORE.INTRA.VDW>
-1.4663

>  <SCORE.INTRA.VDW.0>
1.0768

>  <SCORE.INTRA.norm>
-0.106492

>  <SCORE.RESTR>
0.493436

>  <SCORE.RESTR.CAVITY>
0.493436

>  <SCORE.RESTR.norm>
0.0214538

>  <SCORE.SYSTEM>
0

>  <SCORE.SYSTEM.CONST>
0

>  <SCORE.SYSTEM.DIHEDRAL>
0

>  <SCORE.SYSTEM.SOLV>
0

>  <SCORE.SYSTEM.norm>
0

>  <SCORE.heavy>
23

>  <SCORE.norm>
-0.999641

>  <RMSD>
14.650

$$$$
1uui_lig
 OpenBabel11021811413D
libRbt.so/2013.1/901 2013/11/27
 23 24  0  0  0  0  0  0  0  0999 V2000
  -19.9934   -7.6360    9.2403 C   0  0  0  0  0  0  0  0  0  0  0  0
  -19.0269   -8.7983    6.7571 O   0  0  0  0  0  0  0  0  0  0  0  0
  -15.3811   -8.4334   11.1250 O   0  0  0  0  0  0  0  0  0  0  0  0
  -18.6808   -7.8366    5.7525 C   0  0  0  0  0  0  0  0  0  0  0  0
  -16.0232   -8.8750   12.3237 C   0  0  0  0  0  0  0  0  0  0  0  0
  -20.0308   -6.1430    9.1019 N   0  0  0  0  0  0  0  0  0  0  0  0
  -19.9461   -7.4234    4.9991 C   0  0  0  0  0  0  0  0  0  0  0  0
  -19.2996   -5.4795   10.2154 C   0  0  0  0  0  0  0  0  0  0  0  0
  -21.4323   -5.6480    9.0646 C   0  0  0  0  0  0  0  0  0  0  0  0
  -20.9522   -6.7965    5.9696 C   0  0  0  0  0  0  0  0  0  0  0  0
  -19.9169   -5.8085   11.5853 C   0  0  0  0  0  0  0  0  0  0  0  0
  -22.2009   -6.0238   10.3429 C   0  0  0  0  0  0  0  0  0  0  0  0
  -22.2477   -6.6022    5.2807 N   0  0  0  0  0  0  0  0  0  0  0  0
  -21.2814   -6.4097   11.4583 N   0  0  0  0  0  0  0  0  0  0  0  0
  -21.7983   -7.1523   12.5362 C   0  0  0  0  0  0  0  0  0  0  0  0
  -20.9690   -7.6769   13.4827 N   0  0  0  0  0  0  0  0  0  0  0  0
  -23.1217   -7.4776   12.5862 N   0  0  0  0  0  0  0  0  0  0  0  0
  -18.1150   -8.7093    7.8556 C   0  0  0  0  0  0  0  0  0  0  0  0
  -18.5420   -8.1476    9.0900 C   0  0  0  0  0  0  0  0  0  0  0  0
  -17.6302   -8.0570   10.1783 C   0  0  0  0  0  0  0  0  0  0  0  0
  -16.2970   -8.5270   10.0303 C   0  0  0  0  0  0  0  0  0  0  0  0
  -15.8741   -9.0885    8.7969 C   0  0  0  0  0  0  0  0  0  0  0  0
  -16.7828   -9.1784    7.7097 C   0  0  0  0  0  0  0  0  0  0  0  0
  2  4  1  0  0  0  0
  3  5  1  0  0  0  0
  4  7  1  0  0  0  0
  6  1  1  0  0  0  0
  7 10  1  0  0  0  0
  8  6  1  0  0  0  0
  8 11  1  0  0  0  0
  9  6  1  0  0  0  0
 10 13  1  0  0  0  0
 11 14  1  0  0  0  0
 12  9  1  0  0  0  0
 14 12  1  0  0  0  0
 14 15  1  0  0  0  0
 15 16  1  0  0  0  0
 15 17  1  0  0  0  0
 18  2  1  0  0  0  0
 18 23  2  0  0  0  0
 19  1  1  0  0  0  0
 19 18  1  0  0  0  0
 20 19  2  0  0  0  0
 21  3  1  0  0  0  0
 21 20  1  0  0  0  0
 22 21  2  0  0  0  0
 22 23  1  0  0  0  0
M  END
>  <CHROM.1>
-151.03758172,60.32324111,-65.31063381,-170.91384647,-55.38625048,-20.48710123
-47.07744201,95.89602515,107.50511635,-100.58793371,45.43503705,-19.44717999
-7.45387707,9.37861447,1.88415751,-0.37998349,1.54769683

>  <Name>
1uui_lig

>  <RI>
0

>  <Rbt.Current_Directory>
/home/itssahil/PROJECTS/Mol_Feturizer/New_Systems/rnas/1uui

>  <Rbt.Executable>
rbdock ($Id: //depot/dev/client3/rdock/2013.1/src/exe/rbdock.cxx#4 $)

>  <Rbt.Library>
libRbt.so (2013.1, Build901 2013/11/27)

>  <Rbt.Parameter_File>
/export/apps/rDock/src/rDock_2013.1_src/data/scripts/dock_solv.prm

>  <Rbt.Receptor>
prm/blind_docking_100.prm

>  <SCORE>
-24.2189

>  <SCORE.INTER>
-21.1267

>  <SCORE.INTER.CONST>
1

>  <SCORE.INTER.POLAR>
-2.5904

>  <SCORE.INTER.ROT>
10

>  <SCORE.INTER.SOLV>
6.24312

>  <SCORE.INTER.VDW>
-17.7975

>  <SCORE.INTER.norm>
-0.918552

>  <SCORE.INTRA>
-4.51475

>  <SCORE.INTRA.DIHEDRAL>
-8.3595

>  <SCORE.INTRA.DIHEDRAL.0>
23.4151

>  <SCORE.INTRA.POLAR>
0

>  <SCORE.INTRA.POLAR.0>
0

>  <SCORE.INTRA.REPUL>
0

>  <SCORE.INTRA.REPUL.0>
0

>  <SCORE.INTRA.SOLV>
0.341559

>  <SCORE.INTRA.SOLV.lig_0>
-17.3568

>  <SCORE.INTRA.VDW>
-0.505786

>  <SCORE.INTRA.VDW.0>
1.0768

>  <SCORE.INTRA.norm>
-0.196294

>  <SCORE.RESTR>
1.42256

>  <SCORE.RESTR.CAVITY>
1.42256

>  <SCORE.RESTR.norm>
0.0618506

>  <SCORE.SYSTEM>
0

>  <SCORE.SYSTEM.CONST>
0

>  <SCORE.SYSTEM.DIHEDRAL>
0

>  <SCORE.SYSTEM.SOLV>
0

>  <SCORE.SYSTEM.norm>
0

>  <SCORE.heavy>
23

>  <SCORE.norm>
-1.053

>  <RMSD>
14.654

$$$$
1uui_lig
 OpenBabel11021811413D
libRbt.so/2013.1/901 2013/11/27
 23 24  0  0  0  0  0  0  0  0999 V2000
  -20.2357   -7.5430    9.5194 C   0  0  0  0  0  0  0  0  0  0  0  0
  -19.5418   -8.4528    6.8469 O   0  0  0  0  0  0  0  0  0  0  0  0
  -15.4574   -8.5059   10.8242 O   0  0  0  0  0  0  0  0  0  0  0  0
  -20.0290   -9.7816    6.6213 C   0  0  0  0  0  0  0  0  0  0  0  0
  -16.0132   -8.9147   12.0765 C   0  0  0  0  0  0  0  0  0  0  0  0
  -20.3339   -7.2515   10.9874 N   0  0  0  0  0  0  0  0  0  0  0  0
  -19.1534  -10.4629    5.5686 C   0  0  0  0  0  0  0  0  0  0  0  0
  -21.7383   -7.3639   11.4669 C   0  0  0  0  0  0  0  0  0  0  0  0
  -19.8121   -5.8938   11.2954 C   0  0  0  0  0  0  0  0  0  0  0  0
  -19.0004  -11.9512    5.8983 C   0  0  0  0  0  0  0  0  0  0  0  0
  -22.6696   -6.3657   10.7584 C   0  0  0  0  0  0  0  0  0  0  0  0
  -20.5922   -4.8021   10.5433 C   0  0  0  0  0  0  0  0  0  0  0  0
  -17.9801  -12.1201    6.9570 N   0  0  0  0  0  0  0  0  0  0  0  0
  -21.9071   -5.3014   10.0333 N   0  0  0  0  0  0  0  0  0  0  0  0
  -22.5501   -4.5877    9.0049 C   0  0  0  0  0  0  0  0  0  0  0  0
  -23.7958   -4.0660    9.1919 N   0  0  0  0  0  0  0  0  0  0  0  0
  -22.0016   -4.5173    7.7584 N   0  0  0  0  0  0  0  0  0  0  0  0
  -18.5196   -8.4688    7.8475 C   0  0  0  0  0  0  0  0  0  0  0  0
  -18.8114   -8.0325    9.1687 C   0  0  0  0  0  0  0  0  0  0  0  0
  -17.7905   -8.0460   10.1593 C   0  0  0  0  0  0  0  0  0  0  0  0
  -16.4832   -8.4947    9.8274 C   0  0  0  0  0  0  0  0  0  0  0  0
  -16.1953   -8.9310    8.5075 C   0  0  0  0  0  0  0  0  0  0  0  0
  -17.2131   -8.9169    7.5178 C   0  0  0  0  0  0  0  0  0  0  0  0
  2  4  1  0  0  0  0
  3  5  1  0  0  0  0
  4  7  1  0  0  0  0
  6  1  1  0  0  0  0
  7 10  1  0  0  0  0
  8  6  1  0  0  0  0
  8 11  1  0  0  0  0
  9  6  1  0  0  0  0
 10 13  1  0  0  0  0
 11 14  1  0  0  0  0
 12  9  1  0  0  0  0
 14 12  1  0  0  0  0
 14 15  1  0  0  0  0
 15 16  1  0  0  0  0
 15 17  1  0  0  0  0
 18  2  1  0  0  0  0
 18 23  2  0  0  0  0
 19  1  1  0  0  0  0
 19 18  1  0  0  0  0
 20 19  2  0  0  0  0
 21  3  1  0  0  0  0
 21 20  1  0  0  0  0
 22 21  2  0  0  0  0
 22 23  1  0  0  0  0
M  END
>  <CHROM.1>
-87.12151425,144.28881746,-155.07811045,-79.53462506,61.82811685,47.76129754
-5.24694148,-60.99458835,-103.48798188,175.03938539,38.58011732,-19.50563212
-7.77346120,9.05273090,-2.44161788,0.54177286,-2.21930684

>  <Name>
1uui_lig

>  <RI>
0

>  <Rbt.Current_Directory>
/home/itssahil/PROJECTS/Mol_Feturizer/New_Systems/rnas/1uui

>  <Rbt.Executable>
rbdock ($Id: //depot/dev/client3/rdock/2013.1/src/exe/rbdock.cxx#4 $)

>  <Rbt.Library>
libRbt.so (2013.1, Build901 2013/11/27)

>  <Rbt.Parameter_File>
/export/apps/rDock/src/rDock_2013.1_src/data/scripts/dock_solv.prm

>  <Rbt.Receptor>
prm/blind_docking_80.prm

>  <SCORE>
-18.1925

>  <SCORE.INTER>
-17.1975

>  <SCORE.INTER.CONST>
1

>  <SCORE.INTER.POLAR>
-1.85487

>  <SCORE.INTER.ROT>
10

>  <SCORE.INTER.SOLV>
6.63972

>  <SCORE.INTER.VDW>
-17.762

>  <SCORE.INTER.norm>
-0.747718

>  <SCORE.INTRA>
-1.00168

>  <SCORE.INTRA.DIHEDRAL>
-3.51845

>  <SCORE.INTRA.DIHEDRAL.0>
23.4151

>  <SCORE.INTRA.POLAR>
0

>  <SCORE.INTRA.POLAR.0>
0

>  <SCORE.INTRA.REPUL>
0

>  <SCORE.INTRA.REPUL.0>
0

>  <SCORE.INTRA.SOLV>
0.335684

>  <SCORE.INTRA.SOLV.lig_0>
-17.3568

>  <SCORE.INTRA.VDW>
0.589698

>  <SCORE.INTRA.VDW.0>
1.0768

>  <SCORE.INTRA.norm>
-0.0435514

>  <SCORE.RESTR>
0.0066631

>  <SCORE.RESTR.CAVITY>
0.0066631

>  <SCORE.RESTR.norm>
0.0002897

>  <SCORE.SYSTEM>
0

>  <SCORE.SYSTEM.CONST>
0

>  <SCORE.SYSTEM.DIHEDRAL>
0

>  <SCORE.SYSTEM.SOLV>
0

>  <SCORE.SYSTEM.norm>
0

>  <SCORE.heavy>
23

>  <SCORE.norm>
-0.79098

>  <RMSD>
14.723

$$$$
1uui_lig
 OpenBabel11021811413D
libRbt.so/2013.1/901 2013/11/27
 23 24  0  0  0  0  0  0  0  0999 V2000
  -19.6876   -7.0740    8.5036 C   0  0  0  0  0  0  0  0  0  0  0  0
  -22.5862   -7.2351    8.6574 O   0  0  0  0  0  0  0  0  0  0  0  0
  -20.1629   -2.1172    9.3194 O   0  0  0  0  0  0  0  0  0  0  0  0
  -22.3869   -8.0257    9.8361 C   0  0  0  0  0  0  0  0  0  0  0  0
  -20.7714   -1.1803    8.4272 C   0  0  0  0  0  0  0  0  0  0  0  0
  -18.2356   -6.6982    8.5110 N   0  0  0  0  0  0  0  0  0  0  0  0
  -23.2145   -7.4361   10.9792 C   0  0  0  0  0  0  0  0  0  0  0  0
  -17.7784   -6.2851    7.1563 C   0  0  0  0  0  0  0  0  0  0  0  0
  -17.3973   -7.8269    8.9945 C   0  0  0  0  0  0  0  0  0  0  0  0
  -22.4041   -7.4603   12.2791 C   0  0  0  0  0  0  0  0  0  0  0  0
  -17.9329   -7.4177    6.1271 C   0  0  0  0  0  0  0  0  0  0  0  0
  -17.5585   -9.0736    8.1080 C   0  0  0  0  0  0  0  0  0  0  0  0
  -22.0651   -6.0752   12.6755 N   0  0  0  0  0  0  0  0  0  0  0  0
  -18.1638   -8.7443    6.7800 N   0  0  0  0  0  0  0  0  0  0  0  0
  -18.7449   -9.7799    6.0248 C   0  0  0  0  0  0  0  0  0  0  0  0
  -19.8471  -10.4408    6.4801 N   0  0  0  0  0  0  0  0  0  0  0  0
  -18.1429  -10.2354    4.8892 N   0  0  0  0  0  0  0  0  0  0  0  0
  -21.9762   -5.9515    8.8194 C   0  0  0  0  0  0  0  0  0  0  0  0
  -20.5618   -5.8232    8.7528 C   0  0  0  0  0  0  0  0  0  0  0  0
  -19.9594   -4.5451    8.9190 C   0  0  0  0  0  0  0  0  0  0  0  0
  -20.7705   -3.4011    9.1508 C   0  0  0  0  0  0  0  0  0  0  0  0
  -22.1826   -3.5323    9.2154 C   0  0  0  0  0  0  0  0  0  0  0  0
  -22.7848   -4.8074    9.0509 C   0  0  0  0  0  0  0  0  0  0  0  0
  2  4  1  0  0  0  0
  3  5  1  0  0  0  0
  4  7  1  0  0  0  0
  6  1  1  0  0  0  0
  7 10  1  0  0  0  0
  8  6  1  0  0  0  0
  8 11  1  0  0  0  0
  9  6  1  0  0  0  0
 10 13  1  0  0  0  0
 11 14  1  0  0  0  0
 12  9  1  0  0  0  0
 14 12  1  0  0  0  0
 14 15  1  0  0  0  0
 15 16  1  0  0  0  0
 15 17  1  0  0  0  0
 18  2  1  0  0  0  0
 18 23  2  0  0  0  0
 19  1  1  0  0  0  0
 19 18  1  0  0  0  0
 20 19  2  0  0  0  0
 21  3  1  0  0  0  0
 21 20  1  0  0  0  0
 22 21  2  0  0  0  0
 22 23  1  0  0  0  0
M  END
>  <CHROM.1>
69.44378947,-138.80746165,-88.11808227,111.37917332,-54.92304411,-127.05102024
-150.39067300,-124.58039354,74.21863656,-178.49153685,127.91281049,-20.21776905
-6.61104337,8.59895121,-0.82859407,0.75104330,0.06373624

>  <Name>
1uui_lig

>  <RI>
0

>  <Rbt.Current_Directory>
/home/itssahil/PROJECTS/Mol_Feturizer/New_Systems/rnas/1uui

>  <Rbt.Executable>
rbdock ($Id: //depot/dev/client3/rdock/2013.1/src/exe/rbdock.cxx#4 $)

>  <Rbt.Library>
libRbt.so (2013.1, Build901 2013/11/27)

>  <Rbt.Parameter_File>
/export/apps/rDock/src/rDock_2013.1_src/data/scripts/dock_solv.prm

>  <Rbt.Receptor>
prm/blind_docking_60.prm

>  <SCORE>
-23.006

>  <SCORE.INTER>
-22.8827

>  <SCORE.INTER.CONST>
1

>  <SCORE.INTER.POLAR>
-2.76981

>  <SCORE.INTER.ROT>
10

>  <SCORE.INTER.SOLV>
6.85208

>  <SCORE.INTER.VDW>
-18.5731

>  <SCORE.INTER.norm>
-0.994902

>  <SCORE.INTRA>
-0.19879

>  <SCORE.INTRA.DIHEDRAL>
0.0925367

>  <SCORE.INTRA.DIHEDRAL.0>
23.4151

>  <SCORE.INTRA.POLAR>
0

>  <SCORE.INTRA.POLAR.0>
0

>  <SCORE.INTRA.REPUL>
0

>  <SCORE.INTRA.REPUL.0>
0

>  <SCORE.INTRA.SOLV>
0.171798

>  <SCORE.INTRA.SOLV.lig_0>
-17.3568

>  <SCORE.INTRA.VDW>
-0.330957

>  <SCORE.INTRA.VDW.0>
1.0768

>  <SCORE.INTRA.norm>
-0.00864303

>  <SCORE.RESTR>
0.0755268

>  <SCORE.RESTR.CAVITY>
0.0755268

>  <SCORE.RESTR.norm>
0.00328378

>  <SCORE.SYSTEM>
0

>  <SCORE.SYSTEM.CONST>
0

>  <SCORE.SYSTEM.DIHEDRAL>
0

>  <SCORE.SYSTEM.SOLV>
0

>  <SCORE.SYSTEM.norm>
0

>  <SCORE.heavy>
23

>  <SCORE.norm>
-1.00026

>  <RMSD>
14.743

$$$$
1uui_lig
 OpenBabel11021811413D
libRbt.so/2013.1/901 2013/11/27
 23 24  0  0  0  0  0  0  0  0999 V2000
  -18.9175   -7.3746    9.0516 C   0  0  0  0  0  0  0  0  0  0  0  0
  -21.7223   -7.8605    8.4616 O   0  0  0  0  0  0  0  0  0  0  0  0
  -20.1224   -2.5024    9.5730 O   0  0  0  0  0  0  0  0  0  0  0  0
  -21.4293   -8.7013    9.5846 C   0  0  0  0  0  0  0  0  0  0  0  0
  -20.7170   -1.6180    8.6200 C   0  0  0  0  0  0  0  0  0  0  0  0
  -17.6356   -6.9183    8.4208 N   0  0  0  0  0  0  0  0  0  0  0  0
  -22.5654   -8.5898   10.6024 C   0  0  0  0  0  0  0  0  0  0  0  0
  -17.8565   -6.4559    7.0236 C   0  0  0  0  0  0  0  0  0  0  0  0
  -16.6228   -8.0067    8.4285 C   0  0  0  0  0  0  0  0  0  0  0  0
  -22.4159   -7.2996   11.4149 C   0  0  0  0  0  0  0  0  0  0  0  0
  -18.4113   -7.5766    6.1279 C   0  0  0  0  0  0  0  0  0  0  0  0
  -17.1144   -9.2444    7.6586 C   0  0  0  0  0  0  0  0  0  0  0  0
  -23.5921   -7.1327   12.2976 N   0  0  0  0  0  0  0  0  0  0  0  0
  -18.2669   -8.9256    6.7596 N   0  0  0  0  0  0  0  0  0  0  0  0
  -19.0823   -9.9784    6.3043 C   0  0  0  0  0  0  0  0  0  0  0  0
  -20.3034  -10.2074    6.8659 N   0  0  0  0  0  0  0  0  0  0  0  0
  -18.6161  -10.8732    5.3870 N   0  0  0  0  0  0  0  0  0  0  0  0
  -21.3179   -6.5164    8.7370 C   0  0  0  0  0  0  0  0  0  0  0  0
  -19.9568   -6.2299    9.0316 C   0  0  0  0  0  0  0  0  0  0  0  0
  -19.5601   -4.8922    9.3093 C   0  0  0  0  0  0  0  0  0  0  0  0
  -20.5228   -3.8466    9.2918 C   0  0  0  0  0  0  0  0  0  0  0  0
  -21.8808   -4.1356    8.9960 C   0  0  0  0  0  0  0  0  0  0  0  0
  -22.2781   -5.4704    8.7198 C   0  0  0  0  0  0  0  0  0  0  0  0
  2  4  1  0  0  0  0
  3  5  1  0  0  0  0
  4  7  1  0  0  0  0
  6  1  1  0  0  0  0
  7 10  1  0  0  0  0
  8  6  1  0  0  0  0
  8 11  1  0  0  0  0
  9  6  1  0  0  0  0
 10 13  1  0  0  0  0
 11 14  1  0  0  0  0
 12  9  1  0  0  0  0
 14 12  1  0  0  0  0
 14 15  1  0  0  0  0
 15 16  1  0  0  0  0
 15 17  1  0  0  0  0
 18  2  1  0  0  0  0
 18 23  2  0  0  0  0
 19  1  1  0  0  0  0
 19 18  1  0  0  0  0
 20 19  2  0  0  0  0
 21  3  1  0  0  0  0
 21 20  1  0  0  0  0
 22 21  2  0  0  0  0
 22 23  1  0  0  0  0
M  END
>  <CHROM.1>
83.62862690,-78.94650148,-57.78350578,174.22878768,-72.18978477,-89.43025684
-119.96236210,-154.07825258,59.64307504,139.70354294,135.07729972,-20.05525659
-7.01580350,8.55795985,-0.92637155,0.62983710,0.16725544

>  <Name>
1uui_lig

>  <RI>
0

>  <Rbt.Current_Directory>
/home/itssahil/PROJECTS/Mol_Feturizer/New_Systems/rnas/1uui

>  <Rbt.Executable>
rbdock ($Id: //depot/dev/client3/rdock/2013.1/src/exe/rbdock.cxx#4 $)

>  <Rbt.Library>
libRbt.so (2013.1, Build901 2013/11/27)

>  <Rbt.Parameter_File>
/export/apps/rDock/src/rDock_2013.1_src/data/scripts/dock_solv.prm

>  <Rbt.Receptor>
prm/blind_docking_100.prm

>  <SCORE>
-29.5224

>  <SCORE.INTER>
-26.3402

>  <SCORE.INTER.CONST>
1

>  <SCORE.INTER.POLAR>
-4.39371

>  <SCORE.INTER.ROT>
10

>  <SCORE.INTER.SOLV>
6.59978

>  <SCORE.INTER.VDW>
-15.3811

>  <SCORE.INTER.norm>
-1.14523

>  <SCORE.INTRA>
-3.96972

>  <SCORE.INTRA.DIHEDRAL>
-9.06357

>  <SCORE.INTRA.DIHEDRAL.0>
23.4151

>  <SCORE.INTRA.POLAR>
-0.129136

>  <SCORE.INTRA.POLAR.0>
0

>  <SCORE.INTRA.REPUL>
0

>  <SCORE.INTRA.REPUL.0>
0

>  <SCORE.INTRA.SOLV>
0.884243

>  <SCORE.INTRA.SOLV.lig_0>
-17.3568

>  <SCORE.INTRA.VDW>
0.559007

>  <SCORE.INTRA.VDW.0>
1.0768

>  <SCORE.INTRA.norm>
-0.172597

>  <SCORE.RESTR>
0.787564

>  <SCORE.RESTR.CAVITY>
0.787564

>  <SCORE.RESTR.norm>
0.0342419

>  <SCORE.SYSTEM>
0

>  <SCORE.SYSTEM.CONST>
0

>  <SCORE.SYSTEM.DIHEDRAL>
0

>  <SCORE.SYSTEM.SOLV>
0

>  <SCORE.SYSTEM.norm>
0

>  <SCORE.heavy>
23

>  <SCORE.norm>
-1.28358

>  <RMSD>
14.767

$$$$
1uui_lig
 OpenBabel11021811413D
libRbt.so/2013.1/901 2013/11/27
 23 24  0  0  0  0  0  0  0  0999 V2000
  -19.4995   -7.0846    9.2190 C   0  0  0  0  0  0  0  0  0  0  0  0
  -19.3019   -9.1677    7.2007 O   0  0  0  0  0  0  0  0  0  0  0  0
  -15.0344   -8.6758   10.9491 O   0  0  0  0  0  0  0  0  0  0  0  0
  -18.7734   -9.4018    5.8893 C   0  0  0  0  0  0  0  0  0  0  0  0
  -15.5606   -8.6824   12.2785 C   0  0  0  0  0  0  0  0  0  0  0  0
  -19.2339   -5.9848   10.2035 N   0  0  0  0  0  0  0  0  0  0  0  0
  -19.8317  -10.1112    5.0433 C   0  0  0  0  0  0  0  0  0  0  0  0
  -19.5419   -6.4187   11.5933 C   0  0  0  0  0  0  0  0  0  0  0  0
  -20.0305   -4.7734    9.8742 C   0  0  0  0  0  0  0  0  0  0  0  0
  -19.2843  -10.3810    3.6380 C   0  0  0  0  0  0  0  0  0  0  0  0
  -21.0206   -6.8084   11.7596 C   0  0  0  0  0  0  0  0  0  0  0  0
  -21.5405   -5.0663    9.8885 C   0  0  0  0  0  0  0  0  0  0  0  0
  -18.2448  -11.4322    3.7063 N   0  0  0  0  0  0  0  0  0  0  0  0
  -21.8599   -6.3347   10.6148 N   0  0  0  0  0  0  0  0  0  0  0  0
  -23.1025   -6.9535   10.3832 C   0  0  0  0  0  0  0  0  0  0  0  0
  -23.9053   -7.3162   11.4239 N   0  0  0  0  0  0  0  0  0  0  0  0
  -23.4711   -7.3254    9.1241 N   0  0  0  0  0  0  0  0  0  0  0  0
  -18.2342   -9.0448    8.1447 C   0  0  0  0  0  0  0  0  0  0  0  0
  -18.2860   -8.0406    9.1497 C   0  0  0  0  0  0  0  0  0  0  0  0
  -17.2196   -7.9194   10.0835 C   0  0  0  0  0  0  0  0  0  0  0  0
  -16.1066   -8.8004   10.0105 C   0  0  0  0  0  0  0  0  0  0  0  0
  -16.0584   -9.8030    9.0066 C   0  0  0  0  0  0  0  0  0  0  0  0
  -17.1215   -9.9242    8.0735 C   0  0  0  0  0  0  0  0  0  0  0  0
  2  4  1  0  0  0  0
  3  5  1  0  0  0  0
  4  7  1  0  0  0  0
  6  1  1  0  0  0  0
  7 10  1  0  0  0  0
  8  6  1  0  0  0  0
  8 11  1  0  0  0  0
  9  6  1  0  0  0  0
 10 13  1  0  0  0  0
 11 14  1  0  0  0  0
 12  9  1  0  0  0  0
 14 12  1  0  0  0  0
 14 15  1  0  0  0  0
 15 16  1  0  0  0  0
 15 17  1  0  0  0  0
 18  2  1  0  0  0  0
 18 23  2  0  0  0  0
 19  1  1  0  0  0  0
 19 18  1  0  0  0  0
 20 19  2  0  0  0  0
 21  3  1  0  0  0  0
 21 20  1  0  0  0  0
 22 21  2  0  0  0  0
 22 23  1  0  0  0  0
M  END
>  <CHROM.1>
155.73082937,-179.60269608,-83.39967573,70.47006868,-179.93682724,39.11807265
112.77852825,134.61749360,137.97494963,-170.93907241,52.27410129,-19.27720361
-8.07652842,8.98533638,-2.14552228,0.29291590,-2.05935548

>  <Name>
1uui_lig

>  <RI>
0

>  <Rbt.Current_Directory>
/home/itssahil/PROJECTS/Mol_Feturizer/New_Systems/rnas/1uui

>  <Rbt.Executable>
rbdock ($Id: //depot/dev/client3/rdock/2013.1/src/exe/rbdock.cxx#4 $)

>  <Rbt.Library>
libRbt.so (2013.1, Build901 2013/11/27)

>  <Rbt.Parameter_File>
/export/apps/rDock/src/rDock_2013.1_src/data/scripts/dock_solv.prm

>  <Rbt.Receptor>
prm/blind_docking_100.prm

>  <SCORE>
-28.8059

>  <SCORE.INTER>
-26.4378

>  <SCORE.INTER.CONST>
1

>  <SCORE.INTER.POLAR>
-3.1121

>  <SCORE.INTER.ROT>
10

>  <SCORE.INTER.SOLV>
10.3015

>  <SCORE.INTER.VDW>
-20.952

>  <SCORE.INTER.norm>
-1.14947

>  <SCORE.INTRA>
-3.48297

>  <SCORE.INTRA.DIHEDRAL>
-9.80527

>  <SCORE.INTRA.DIHEDRAL.0>
23.4151

>  <SCORE.INTRA.POLAR>
0

>  <SCORE.INTRA.POLAR.0>
0

>  <SCORE.INTRA.REPUL>
0

>  <SCORE.INTRA.REPUL.0>
0

>  <SCORE.INTRA.SOLV>
0.0175329

>  <SCORE.INTRA.SOLV.lig_0>
-17.3568

>  <SCORE.INTRA.VDW>
1.4109

>  <SCORE.INTRA.VDW.0>
1.0768

>  <SCORE.INTRA.norm>
-0.151434

>  <SCORE.RESTR>
1.11485

>  <SCORE.RESTR.CAVITY>
1.11485

>  <SCORE.RESTR.norm>
0.0484717

>  <SCORE.SYSTEM>
0

>  <SCORE.SYSTEM.CONST>
0

>  <SCORE.SYSTEM.DIHEDRAL>
0

>  <SCORE.SYSTEM.SOLV>
0

>  <SCORE.SYSTEM.norm>
0

>  <SCORE.heavy>
23

>  <SCORE.norm>
-1.25243

>  <RMSD>
14.769

$$$$
1uui_lig
 OpenBabel11021811413D
libRbt.so/2013.1/901 2013/11/27
 23 24  0  0  0  0  0  0  0  0999 V2000
  -20.6119   -8.3024    8.4378 C   0  0  0  0  0  0  0  0  0  0  0  0
  -20.0196   -8.1671    5.5949 O   0  0  0  0  0  0  0  0  0  0  0  0
  -15.8919   -9.9615    9.0944 O   0  0  0  0  0  0  0  0  0  0  0  0
  -20.5650   -9.2740    4.8660 C   0  0  0  0  0  0  0  0  0  0  0  0
  -15.6065   -8.9420   10.0552 C   0  0  0  0  0  0  0  0  0  0  0  0
  -20.6440   -8.5159    9.9220 N   0  0  0  0  0  0  0  0  0  0  0  0
  -21.5960   -8.7531    3.8636 C   0  0  0  0  0  0  0  0  0  0  0  0
  -22.0420   -8.5660   10.4297 C   0  0  0  0  0  0  0  0  0  0  0  0
  -19.8978   -7.4421   10.6295 C   0  0  0  0  0  0  0  0  0  0  0  0
  -22.7583   -8.0866    4.6064 C   0  0  0  0  0  0  0  0  0  0  0  0
  -22.7995   -7.2550   10.1589 C   0  0  0  0  0  0  0  0  0  0  0  0
  -20.4910   -6.0529   10.3386 C   0  0  0  0  0  0  0  0  0  0  0  0
  -22.2788   -6.8529    5.2685 N   0  0  0  0  0  0  0  0  0  0  0  0
  -21.8765   -6.1392    9.7808 N   0  0  0  0  0  0  0  0  0  0  0  0
  -22.4011   -5.0280    9.0949 C   0  0  0  0  0  0  0  0  0  0  0  0
  -23.4219   -4.2980    9.6279 N   0  0  0  0  0  0  0  0  0  0  0  0
  -21.9941   -4.7375    7.8263 N   0  0  0  0  0  0  0  0  0  0  0  0
  -18.9867   -8.6207    6.4744 C   0  0  0  0  0  0  0  0  0  0  0  0
  -19.2293   -8.7029    7.8728 C   0  0  0  0  0  0  0  0  0  0  0  0
  -18.1975   -9.1503    8.7442 C   0  0  0  0  0  0  0  0  0  0  0  0
  -16.9287   -9.5136    8.2165 C   0  0  0  0  0  0  0  0  0  0  0  0
  -16.6899   -9.4316    6.8196 C   0  0  0  0  0  0  0  0  0  0  0  0
  -17.7185   -8.9842    5.9491 C   0  0  0  0  0  0  0  0  0  0  0  0
  2  4  1  0  0  0  0
  3  5  1  0  0  0  0
  4  7  1  0  0  0  0
  6  1  1  0  0  0  0
  7 10  1  0  0  0  0
  8  6  1  0  0  0  0
  8 11  1  0  0  0  0
  9  6  1  0  0  0  0
 10 13  1  0  0  0  0
 11 14  1  0  0  0  0
 12  9  1  0  0  0  0
 14 12  1  0  0  0  0
 14 15  1  0  0  0  0
 15 16  1  0  0  0  0
 15 17  1  0  0  0  0
 18  2  1  0  0  0  0
 18 23  2  0  0  0  0
 19  1  1  0  0  0  0
 19 18  1  0  0  0  0
 20 19  2  0  0  0  0
 21  3  1  0  0  0  0
 21 20  1  0  0  0  0
 22 21  2  0  0  0  0
 22 23  1  0  0  0  0
M  END
>  <CHROM.1>
-176.04995909,-62.83142916,-161.76373621,67.31028139,80.23386850,57.21653586
164.65051376,-70.40329824,-105.64098756,178.07745644,-59.03665741,-20.17616501
-7.80370929,7.98735698,-2.91836538,0.52143555,-1.85306733

>  <Name>
1uui_lig

>  <RI>
0

>  <Rbt.Current_Directory>
/home/itssahil/PROJECTS/Mol_Feturizer/New_Systems/rnas/1uui

>  <Rbt.Executable>
rbdock ($Id: //depot/dev/client3/rdock/2013.1/src/exe/rbdock.cxx#4 $)

>  <Rbt.Library>
libRbt.so (2013.1, Build901 2013/11/27)

>  <Rbt.Parameter_File>
/export/apps/rDock/src/rDock_2013.1_src/data/scripts/dock_solv.prm

>  <Rbt.Receptor>
prm/blind_docking_60.prm

>  <SCORE>
-25.943

>  <SCORE.INTER>
-18.3709

>  <SCORE.INTER.CONST>
1

>  <SCORE.INTER.POLAR>
-2.84657

>  <SCORE.INTER.ROT>
10

>  <SCORE.INTER.SOLV>
6.28893

>  <SCORE.INTER.VDW>
-15.1217

>  <SCORE.INTER.norm>
-0.798735

>  <SCORE.INTRA>
-7.66625

>  <SCORE.INTRA.DIHEDRAL>
-9.17798

>  <SCORE.INTRA.DIHEDRAL.0>
23.4151

>  <SCORE.INTRA.POLAR>
-0.816455

>  <SCORE.INTRA.POLAR.0>
0

>  <SCORE.INTRA.REPUL>
0

>  <SCORE.INTRA.REPUL.0>
0

>  <SCORE.INTRA.SOLV>
1.2464

>  <SCORE.INTRA.SOLV.lig_0>
-17.3568

>  <SCORE.INTRA.VDW>
-0.924512

>  <SCORE.INTRA.VDW.0>
1.0768

>  <SCORE.INTRA.norm>
-0.333315

>  <SCORE.RESTR>
0.0941951

>  <SCORE.RESTR.CAVITY>
0.0941951

>  <SCORE.RESTR.norm>
0.00409544

>  <SCORE.SYSTEM>
0

>  <SCORE.SYSTEM.CONST>
0

>  <SCORE.SYSTEM.DIHEDRAL>
0

>  <SCORE.SYSTEM.SOLV>
0

>  <SCORE.SYSTEM.norm>
0

>  <SCORE.heavy>
23

>  <SCORE.norm>
-1.12795

>  <RMSD>
14.772

$$$$
1uui_lig
 OpenBabel11021811413D
libRbt.so/2013.1/901 2013/11/27
 23 24  0  0  0  0  0  0  0  0999 V2000
  -19.7033   -7.2408    9.0577 C   0  0  0  0  0  0  0  0  0  0  0  0
  -22.4837   -7.4415    9.8826 O   0  0  0  0  0  0  0  0  0  0  0  0
  -20.6279   -2.4001    7.9739 O   0  0  0  0  0  0  0  0  0  0  0  0
  -23.2525   -7.2564   11.0780 C   0  0  0  0  0  0  0  0  0  0  0  0
  -20.8860   -1.3954    8.9578 C   0  0  0  0  0  0  0  0  0  0  0  0
  -18.2873   -6.7858    8.8644 N   0  0  0  0  0  0  0  0  0  0  0  0
  -22.4724   -6.3591   12.0400 C   0  0  0  0  0  0  0  0  0  0  0  0
  -18.0511   -6.3370    7.4653 C   0  0  0  0  0  0  0  0  0  0  0  0
  -17.3296   -7.8706    9.2055 C   0  0  0  0  0  0  0  0  0  0  0  0
  -21.1528   -7.0323   12.4304 C   0  0  0  0  0  0  0  0  0  0  0  0
  -18.2907   -7.4677    6.4505 C   0  0  0  0  0  0  0  0  0  0  0  0
  -17.5494   -9.1169    8.3311 C   0  0  0  0  0  0  0  0  0  0  0  0
  -20.1558   -5.9970   12.7837 N   0  0  0  0  0  0  0  0  0  0  0  0
  -18.3549   -8.8104    7.1082 N   0  0  0  0  0  0  0  0  0  0  0  0
  -18.9821   -9.8700    6.4268 C   0  0  0  0  0  0  0  0  0  0  0  0
  -20.1402  -10.4135    6.8982 N   0  0  0  0  0  0  0  0  0  0  0  0
  -18.3782  -10.4650    5.3587 N   0  0  0  0  0  0  0  0  0  0  0  0
  -22.0168   -6.1786    9.3998 C   0  0  0  0  0  0  0  0  0  0  0  0
  -20.6648   -6.0318    8.9856 C   0  0  0  0  0  0  0  0  0  0  0  0
  -20.2038   -4.7726    8.5103 C   0  0  0  0  0  0  0  0  0  0  0  0
  -21.0936   -3.6658    8.4503 C   0  0  0  0  0  0  0  0  0  0  0  0
  -22.4435   -3.8160    8.8634 C   0  0  0  0  0  0  0  0  0  0  0  0
  -22.9044   -5.0718    9.3389 C   0  0  0  0  0  0  0  0  0  0  0  0
  2  4  1  0  0  0  0
  3  5  1  0  0  0  0
  4  7  1  0  0  0  0
  6  1  1  0  0  0  0
  7 10  1  0  0  0  0
  8  6  1  0  0  0  0
  8 11  1  0  0  0  0
  9  6  1  0  0  0  0
 10 13  1  0  0  0  0
 11 14  1  0  0  0  0
 12  9  1  0  0  0  0
 14 12  1  0  0  0  0
 14 15  1  0  0  0  0
 15 16  1  0  0  0  0
 15 17  1  0  0  0  0
 18  2  1  0  0  0  0
 18 23  2  0  0  0  0
 19  1  1  0  0  0  0
 19 18  1  0  0  0  0
 20 19  2  0  0  0  0
 21  3  1  0  0  0  0
 21 20  1  0  0  0  0
 22 21  2  0  0  0  0
 22 23  1  0  0  0  0
M  END
>  <CHROM.1>
-48.86378466,-61.92958018,-69.56538833,153.09957154,57.52780822,-113.45155936
112.13708489,47.45072618,134.32051930,-167.61270165,-124.65842843,-20.20377399
-6.63633067,8.87436258,0.61814701,-0.93259603,2.87259959

>  <Name>
1uui_lig

>  <RI>
0

>  <Rbt.Current_Directory>
/home/itssahil/PROJECTS/Mol_Feturizer/New_Systems/rnas/1uui

>  <Rbt.Executable>
rbdock ($Id: //depot/dev/client3/rdock/2013.1/src/exe/rbdock.cxx#4 $)

>  <Rbt.Library>
libRbt.so (2013.1, Build901 2013/11/27)

>  <Rbt.Parameter_File>
/export/apps/rDock/src/rDock_2013.1_src/data/scripts/dock_solv.prm

>  <Rbt.Receptor>
prm/blind_docking_100.prm

>  <SCORE>
-19.4256

>  <SCORE.INTER>
-18.5196

>  <SCORE.INTER.CONST>
1

>  <SCORE.INTER.POLAR>
-1.89534

>  <SCORE.INTER.ROT>
10

>  <SCORE.INTER.SOLV>
4.62453

>  <SCORE.INTER.VDW>
-17.8368

>  <SCORE.INTER.norm>
-0.8052

>  <SCORE.INTRA>
-1.75181

>  <SCORE.INTRA.DIHEDRAL>
-10.2572

>  <SCORE.INTRA.DIHEDRAL.0>
23.4151

>  <SCORE.INTRA.POLAR>
0

>  <SCORE.INTRA.POLAR.0>
0

>  <SCORE.INTRA.REPUL>
0

>  <SCORE.INTRA.REPUL.0>
0

>  <SCORE.INTRA.SOLV>
0.238739

>  <SCORE.INTRA.SOLV.lig_0>
-17.3568

>  <SCORE.INTRA.VDW>
3.25741

>  <SCORE.INTRA.VDW.0>
1.0768

>  <SCORE.INTRA.norm>
-0.0761658

>  <SCORE.RESTR>
0.845793

>  <SCORE.RESTR.CAVITY>
0.845793

>  <SCORE.RESTR.norm>
0.0367736

>  <SCORE.SYSTEM>
0

>  <SCORE.SYSTEM.CONST>
0

>  <SCORE.SYSTEM.DIHEDRAL>
0

>  <SCORE.SYSTEM.SOLV>
0

>  <SCORE.SYSTEM.norm>
0

>  <SCORE.heavy>
23

>  <SCORE.norm>
-0.844592

>  <RMSD>
14.774

$$$$
1uui_lig
 OpenBabel11021811413D
libRbt.so/2013.1/901 2013/11/27
 23 24  0  0  0  0  0  0  0  0999 V2000
  -19.8133   -7.1321    9.3507 C   0  0  0  0  0  0  0  0  0  0  0  0
  -18.4258   -8.2573    7.0573 O   0  0  0  0  0  0  0  0  0  0  0  0
  -15.7387   -8.3073   12.0853 O   0  0  0  0  0  0  0  0  0  0  0  0
  -18.3173   -9.5406    6.4286 C   0  0  0  0  0  0  0  0  0  0  0  0
  -16.5221   -9.0267   13.0407 C   0  0  0  0  0  0  0  0  0  0  0  0
  -19.7650   -5.6479    9.5612 N   0  0  0  0  0  0  0  0  0  0  0  0
  -18.8042   -9.4317    4.9828 C   0  0  0  0  0  0  0  0  0  0  0  0
  -19.8710   -5.3040   11.0052 C   0  0  0  0  0  0  0  0  0  0  0  0
  -20.8528   -4.9690    8.8087 C   0  0  0  0  0  0  0  0  0  0  0  0
  -20.1567   -8.7134    4.9384 C   0  0  0  0  0  0  0  0  0  0  0  0
  -21.1959   -5.7906   11.6165 C   0  0  0  0  0  0  0  0  0  0  0  0
  -22.2412   -5.4640    9.2486 C   0  0  0  0  0  0  0  0  0  0  0  0
  -21.1698   -9.5236    5.6509 N   0  0  0  0  0  0  0  0  0  0  0  0
  -22.1948   -6.1679   10.5679 N   0  0  0  0  0  0  0  0  0  0  0  0
  -23.2598   -7.0177   10.9202 C   0  0  0  0  0  0  0  0  0  0  0  0
  -23.3719   -7.5059   12.1883 N   0  0  0  0  0  0  0  0  0  0  0  0
  -24.1251   -7.4789    9.9725 N   0  0  0  0  0  0  0  0  0  0  0  0
  -17.7551   -8.2722    8.3206 C   0  0  0  0  0  0  0  0  0  0  0  0
  -18.3934   -7.7326    9.4706 C   0  0  0  0  0  0  0  0  0  0  0  0
  -17.7206   -7.7456   10.7241 C   0  0  0  0  0  0  0  0  0  0  0  0
  -16.4143   -8.2968   10.8245 C   0  0  0  0  0  0  0  0  0  0  0  0
  -15.7801   -8.8361    9.6747 C   0  0  0  0  0  0  0  0  0  0  0  0
  -16.4501   -8.8226    8.4230 C   0  0  0  0  0  0  0  0  0  0  0  0
  2  4  1  0  0  0  0
  3  5  1  0  0  0  0
  4  7  1  0  0  0  0
  6  1  1  0  0  0  0
  7 10  1  0  0  0  0
  8  6  1  0  0  0  0
  8 11  1  0  0  0  0
  9  6  1  0  0  0  0
 10 13  1  0  0  0  0
 11 14  1  0  0  0  0
 12  9  1  0  0  0  0
 14 12  1  0  0  0  0
 14 15  1  0  0  0  0
 15 16  1  0  0  0  0
 15 17  1  0  0  0  0
 18  2  1  0  0  0  0
 18 23  2  0  0  0  0
 19  1  1  0  0  0  0
 19 18  1  0  0  0  0
 20 19  2  0  0  0  0
 21  3  1  0  0  0  0
 21 20  1  0  0  0  0
 22 21  2  0  0  0  0
 22 23  1  0  0  0  0
M  END
>  <CHROM.1>
-169.46429505,-48.74834701,-87.06933011,-63.86720388,-173.72543121,-0.94398030
60.29069162,75.10214987,-133.24418625,-111.88918825,58.40584240,-19.57583865
-7.61843702,9.33404085,-2.73545128,0.29913977,-1.88300613

>  <Name>
1uui_lig

>  <RI>
0

>  <Rbt.Current_Directory>
/home/itssahil/PROJECTS/Mol_Feturizer/New_Systems/rnas/1uui

>  <Rbt.Executable>
rbdock ($Id: //depot/dev/client3/rdock/2013.1/src/exe/rbdock.cxx#4 $)

>  <Rbt.Library>
libRbt.so (2013.1, Build901 2013/11/27)

>  <Rbt.Parameter_File>
/export/apps/rDock/src/rDock_2013.1_src/data/scripts/dock_solv.prm

>  <Rbt.Receptor>
prm/blind_docking_80.prm

>  <SCORE>
-32.8837

>  <SCORE.INTER>
-28.6991

>  <SCORE.INTER.CONST>
1

>  <SCORE.INTER.POLAR>
-2.75574

>  <SCORE.INTER.ROT>
10

>  <SCORE.INTER.SOLV>
8.71347

>  <SCORE.INTER.VDW>
-23.1181

>  <SCORE.INTER.norm>
-1.24779

>  <SCORE.INTRA>
-4.22174

>  <SCORE.INTRA.DIHEDRAL>
-10.3151

>  <SCORE.INTRA.DIHEDRAL.0>
23.4151

>  <SCORE.INTRA.POLAR>
0

>  <SCORE.INTRA.POLAR.0>
0

>  <SCORE.INTRA.REPUL>
0

>  <SCORE.INTRA.REPUL.0>
0

>  <SCORE.INTRA.SOLV>
0.330564

>  <SCORE.INTRA.SOLV.lig_0>
-17.3568

>  <SCORE.INTRA.VDW>
0.770511

>  <SCORE.INTRA.VDW.0>
1.0768

>  <SCORE.INTRA.norm>
-0.183554

>  <SCORE.RESTR>
0.037206

>  <SCORE.RESTR.CAVITY>
0.037206

>  <SCORE.RESTR.norm>
0.00161765

>  <SCORE.SYSTEM>
0

>  <SCORE.SYSTEM.CONST>
0

>  <SCORE.SYSTEM.DIHEDRAL>
0

>  <SCORE.SYSTEM.SOLV>
0

>  <SCORE.SYSTEM.norm>
0

>  <SCORE.heavy>
23

>  <SCORE.norm>
-1.42972

>  <RMSD>
14.839

$$$$
1uui_lig
 OpenBabel11021811413D
libRbt.so/2013.1/901 2013/11/27
 23 24  0  0  0  0  0  0  0  0999 V2000
  -20.0315   -6.9863    7.0127 C   0  0  0  0  0  0  0  0  0  0  0  0
  -22.6315   -7.2426    8.2878 O   0  0  0  0  0  0  0  0  0  0  0  0
  -19.9014   -2.2619    8.7805 O   0  0  0  0  0  0  0  0  0  0  0  0
  -23.3493   -7.5261    9.4955 C   0  0  0  0  0  0  0  0  0  0  0  0
  -20.8204   -1.1888    8.5618 C   0  0  0  0  0  0  0  0  0  0  0  0
  -20.1685   -6.7489    5.5381 N   0  0  0  0  0  0  0  0  0  0  0  0
  -22.3657   -8.0205   10.5572 C   0  0  0  0  0  0  0  0  0  0  0  0
  -21.2508   -7.5875    4.9549 C   0  0  0  0  0  0  0  0  0  0  0  0
  -18.8896   -7.0297    4.8338 C   0  0  0  0  0  0  0  0  0  0  0  0
  -22.8404   -7.5941   11.9500 C   0  0  0  0  0  0  0  0  0  0  0  0
  -20.9735   -9.0899    5.1332 C   0  0  0  0  0  0  0  0  0  0  0  0
  -18.4373   -8.4856    5.0384 C   0  0  0  0  0  0  0  0  0  0  0  0
  -22.9771   -6.1211   11.9956 N   0  0  0  0  0  0  0  0  0  0  0  0
  -19.5530   -9.3582    5.5202 N   0  0  0  0  0  0  0  0  0  0  0  0
  -19.2372  -10.5850    6.1333 C   0  0  0  0  0  0  0  0  0  0  0  0
  -19.3755  -10.7473    7.4799 N   0  0  0  0  0  0  0  0  0  0  0  0
  -18.6604  -11.5925    5.4179 N   0  0  0  0  0  0  0  0  0  0  0  0
  -21.9464   -5.9926    8.4068 C   0  0  0  0  0  0  0  0  0  0  0  0
  -20.6719   -5.8201    7.8007 C   0  0  0  0  0  0  0  0  0  0  0  0
  -19.9923   -4.5766    7.9256 C   0  0  0  0  0  0  0  0  0  0  0  0
  -20.5870   -3.5110    8.6544 C   0  0  0  0  0  0  0  0  0  0  0  0
  -21.8603   -3.6859    9.2574 C   0  0  0  0  0  0  0  0  0  0  0  0
  -22.5390   -4.9269    9.1344 C   0  0  0  0  0  0  0  0  0  0  0  0
  2  4  1  0  0  0  0
  3  5  1  0  0  0  0
  4  7  1  0  0  0  0
  6  1  1  0  0  0  0
  7 10  1  0  0  0  0
  8  6  1  0  0  0  0
  8 11  1  0  0  0  0
  9  6  1  0  0  0  0
 10 13  1  0  0  0  0
 11 14  1  0  0  0  0
 12  9  1  0  0  0  0
 14 12  1  0  0  0  0
 14 15  1  0  0  0  0
 15 16  1  0  0  0  0
 15 17  1  0  0  0  0
 18  2  1  0  0  0  0
 18 23  2  0  0  0  0
 19  1  1  0  0  0  0
 19 18  1  0  0  0  0
 20 19  2  0  0  0  0
 21  3  1  0  0  0  0
 21 20  1  0  0  0  0
 22 21  2  0  0  0  0
 22 23  1  0  0  0  0
M  END
>  <CHROM.1>
-77.29659237,148.15772015,-103.13498260,-57.66788113,-172.60145061,-84.98348562
-108.28956515,68.23967367,144.31747360,103.16582721,135.90437673,-20.82423093
-6.85526280,7.74886830,-0.94539134,0.99013439,0.09678468

>  <Name>
1uui_lig

>  <RI>
0

>  <Rbt.Current_Directory>
/home/itssahil/PROJECTS/Mol_Feturizer/New_Systems/rnas/1uui

>  <Rbt.Executable>
rbdock ($Id: //depot/dev/client3/rdock/2013.1/src/exe/rbdock.cxx#4 $)

>  <Rbt.Library>
libRbt.so (2013.1, Build901 2013/11/27)

>  <Rbt.Parameter_File>
/export/apps/rDock/src/rDock_2013.1_src/data/scripts/dock_solv.prm

>  <Rbt.Receptor>
prm/blind_docking_100.prm

>  <SCORE>
-22.6354

>  <SCORE.INTER>
-20.5041

>  <SCORE.INTER.CONST>
1

>  <SCORE.INTER.POLAR>
-3.15844

>  <SCORE.INTER.ROT>
10

>  <SCORE.INTER.SOLV>
5.8764

>  <SCORE.INTER.VDW>
-15.3667

>  <SCORE.INTER.norm>
-0.891482

>  <SCORE.INTRA>
-2.46383

>  <SCORE.INTRA.DIHEDRAL>
-7.66791

>  <SCORE.INTRA.DIHEDRAL.0>
23.4151

>  <SCORE.INTRA.POLAR>
0

>  <SCORE.INTRA.POLAR.0>
0

>  <SCORE.INTRA.REPUL>
0

>  <SCORE.INTRA.REPUL.0>
0

>  <SCORE.INTRA.SOLV>
0.492419

>  <SCORE.INTRA.SOLV.lig_0>
-17.3568

>  <SCORE.INTRA.VDW>
1.12391

>  <SCORE.INTRA.VDW.0>
1.0768

>  <SCORE.INTRA.norm>
-0.107123

>  <SCORE.RESTR>
0.332545

>  <SCORE.RESTR.CAVITY>
0.332545

>  <SCORE.RESTR.norm>
0.0144585

>  <SCORE.SYSTEM>
0

>  <SCORE.SYSTEM.CONST>
0

>  <SCORE.SYSTEM.DIHEDRAL>
0

>  <SCORE.SYSTEM.SOLV>
0

>  <SCORE.SYSTEM.norm>
0

>  <SCORE.heavy>
23

>  <SCORE.norm>
-0.984147

>  <RMSD>
14.854

$$$$
1uui_lig
 OpenBabel11021811413D
libRbt.so/2013.1/901 2013/11/27
 23 24  0  0  0  0  0  0  0  0999 V2000
  -19.0441   -6.7452    9.7414 C   0  0  0  0  0  0  0  0  0  0  0  0
  -17.5319   -7.9524    7.5716 O   0  0  0  0  0  0  0  0  0  0  0  0
  -15.4268   -8.3889   12.8520 O   0  0  0  0  0  0  0  0  0  0  0  0
  -17.5765   -9.2434    6.9510 C   0  0  0  0  0  0  0  0  0  0  0  0
  -16.0464   -9.4869   13.5262 C   0  0  0  0  0  0  0  0  0  0  0  0
  -19.2148   -5.6424   10.7435 N   0  0  0  0  0  0  0  0  0  0  0  0
  -18.6794  -10.0756    7.6071 C   0  0  0  0  0  0  0  0  0  0  0  0
  -19.7396   -6.1635   12.0349 C   0  0  0  0  0  0  0  0  0  0  0  0
  -20.1288   -4.5905   10.2251 C   0  0  0  0  0  0  0  0  0  0  0  0
  -18.4380  -11.5654    7.3440 C   0  0  0  0  0  0  0  0  0  0  0  0
  -21.1189   -6.8240   11.8706 C   0  0  0  0  0  0  0  0  0  0  0  0
  -21.5221   -5.1577    9.9041 C   0  0  0  0  0  0  0  0  0  0  0  0
  -18.4625  -11.8197    5.8862 N   0  0  0  0  0  0  0  0  0  0  0  0
  -21.7541   -6.4825   10.5593 N   0  0  0  0  0  0  0  0  0  0  0  0
  -22.7760   -7.3136   10.0639 C   0  0  0  0  0  0  0  0  0  0  0  0
  -23.8198   -6.7908    9.3596 N   0  0  0  0  0  0  0  0  0  0  0  0
  -22.8166   -8.6370   10.3904 N   0  0  0  0  0  0  0  0  0  0  0  0
  -17.0077   -8.0640    8.8979 C   0  0  0  0  0  0  0  0  0  0  0  0
  -17.7115   -7.4889    9.9911 C   0  0  0  0  0  0  0  0  0  0  0  0
  -17.1839   -7.5986   11.3077 C   0  0  0  0  0  0  0  0  0  0  0  0
  -15.9568   -8.2813   11.5277 C   0  0  0  0  0  0  0  0  0  0  0  0
  -15.2569   -8.8555   10.4342 C   0  0  0  0  0  0  0  0  0  0  0  0
  -15.7820   -8.7458    9.1196 C   0  0  0  0  0  0  0  0  0  0  0  0
  2  4  1  0  0  0  0
  3  5  1  0  0  0  0
  4  7  1  0  0  0  0
  6  1  1  0  0  0  0
  7 10  1  0  0  0  0
  8  6  1  0  0  0  0
  8 11  1  0  0  0  0
  9  6  1  0  0  0  0
 10 13  1  0  0  0  0
 11 14  1  0  0  0  0
 12  9  1  0  0  0  0
 14 12  1  0  0  0  0
 14 15  1  0  0  0  0
 15 16  1  0  0  0  0
 15 17  1  0  0  0  0
 18  2  1  0  0  0  0
 18 23  2  0  0  0  0
 19  1  1  0  0  0  0
 19 18  1  0  0  0  0
 20 19  2  0  0  0  0
 21  3  1  0  0  0  0
 21 20  1  0  0  0  0
 22 21  2  0  0  0  0
 22 23  1  0  0  0  0
M  END
>  <CHROM.1>
71.08317285,-159.84950340,-81.50523401,-60.87601762,-43.77752553,145.24165362
85.62458413,-100.69705136,-128.87652496,-148.75251674,83.04031763,-18.89041154
-7.94188101,9.87713413,-2.71778657,0.33350902,-2.20635608

>  <Name>
1uui_lig

>  <RI>
0

>  <Rbt.Current_Directory>
/home/itssahil/PROJECTS/Mol_Feturizer/New_Systems/rnas/1uui

>  <Rbt.Executable>
rbdock ($Id: //depot/dev/client3/rdock/2013.1/src/exe/rbdock.cxx#4 $)

>  <Rbt.Library>
libRbt.so (2013.1, Build901 2013/11/27)

>  <Rbt.Parameter_File>
/export/apps/rDock/src/rDock_2013.1_src/data/scripts/dock_solv.prm

>  <Rbt.Receptor>
prm/blind_docking_80.prm

>  <SCORE>
-34.8163

>  <SCORE.INTER>
-31.349

>  <SCORE.INTER.CONST>
1

>  <SCORE.INTER.POLAR>
-3.78783

>  <SCORE.INTER.ROT>
10

>  <SCORE.INTER.SOLV>
10.1032

>  <SCORE.INTER.VDW>
-21.9077

>  <SCORE.INTER.norm>
-1.363

>  <SCORE.INTRA>
-3.94863

>  <SCORE.INTRA.DIHEDRAL>
-7.8384

>  <SCORE.INTRA.DIHEDRAL.0>
23.4151

>  <SCORE.INTRA.POLAR>
0

>  <SCORE.INTRA.POLAR.0>
0

>  <SCORE.INTRA.REPUL>
0

>  <SCORE.INTRA.REPUL.0>
0

>  <SCORE.INTRA.SOLV>
0.0068869

>  <SCORE.INTRA.SOLV.lig_0>
-17.3568

>  <SCORE.INTRA.VDW>
-0.0328706

>  <SCORE.INTRA.VDW.0>
1.0768

>  <SCORE.INTRA.norm>
-0.171679

>  <SCORE.RESTR>
0.48134

>  <SCORE.RESTR.CAVITY>
0.48134

>  <SCORE.RESTR.norm>
0.0209278

>  <SCORE.SYSTEM>
0

>  <SCORE.SYSTEM.CONST>
0

>  <SCORE.SYSTEM.DIHEDRAL>
0

>  <SCORE.SYSTEM.SOLV>
0

>  <SCORE.SYSTEM.norm>
0

>  <SCORE.heavy>
23

>  <SCORE.norm>
-1.51375

>  <RMSD>
14.886

$$$$
1uui_lig
 OpenBabel11021811413D
libRbt.so/2013.1/901 2013/11/27
 23 24  0  0  0  0  0  0  0  0999 V2000
  -20.8477   -5.6214    7.8406 C   0  0  0  0  0  0  0  0  0  0  0  0
  -21.5618   -5.1034   10.6107 O   0  0  0  0  0  0  0  0  0  0  0  0
  -16.6648   -7.8378    9.5877 O   0  0  0  0  0  0  0  0  0  0  0  0
  -22.6104   -6.0524   10.8427 C   0  0  0  0  0  0  0  0  0  0  0  0
  -16.8756   -9.2474    9.7000 C   0  0  0  0  0  0  0  0  0  0  0  0
  -20.0614   -4.8041    6.8592 N   0  0  0  0  0  0  0  0  0  0  0  0
  -22.4879   -6.5943   12.2676 C   0  0  0  0  0  0  0  0  0  0  0  0
  -19.5750   -3.5404    7.4767 C   0  0  0  0  0  0  0  0  0  0  0  0
  -20.8778   -4.4866    5.6578 C   0  0  0  0  0  0  0  0  0  0  0  0
  -22.5835   -8.1232   12.2565 C   0  0  0  0  0  0  0  0  0  0  0  0
  -20.7348   -2.6518    7.9576 C   0  0  0  0  0  0  0  0  0  0  0  0
  -22.1441   -3.6945    6.0255 C   0  0  0  0  0  0  0  0  0  0  0  0
  -22.4611   -8.6359   13.6395 N   0  0  0  0  0  0  0  0  0  0  0  0
  -22.0494   -3.0848    7.3885 N   0  0  0  0  0  0  0  0  0  0  0  0
  -23.2334   -2.6844    8.0352 C   0  0  0  0  0  0  0  0  0  0  0  0
  -24.1814   -3.6002    8.3836 N   0  0  0  0  0  0  0  0  0  0  0  0
  -23.5198   -1.3623    8.2069 N   0  0  0  0  0  0  0  0  0  0  0  0
  -20.3317   -5.7859   10.3514 C   0  0  0  0  0  0  0  0  0  0  0  0
  -19.9406   -6.0622    9.0128 C   0  0  0  0  0  0  0  0  0  0  0  0
  -18.7186   -6.7452    8.7600 C   0  0  0  0  0  0  0  0  0  0  0  0
  -17.8923   -7.1495    9.8437 C   0  0  0  0  0  0  0  0  0  0  0  0
  -18.2849   -6.8710   11.1792 C   0  0  0  0  0  0  0  0  0  0  0  0
  -19.5049   -6.1904   11.4327 C   0  0  0  0  0  0  0  0  0  0  0  0
  2  4  1  0  0  0  0
  3  5  1  0  0  0  0
  4  7  1  0  0  0  0
  6  1  1  0  0  0  0
  7 10  1  0  0  0  0
  8  6  1  0  0  0  0
  8 11  1  0  0  0  0
  9  6  1  0  0  0  0
 10 13  1  0  0  0  0
 11 14  1  0  0  0  0
 12  9  1  0  0  0  0
 14 12  1  0  0  0  0
 14 15  1  0  0  0  0
 15 16  1  0  0  0  0
 15 17  1  0  0  0  0
 18  2  1  0  0  0  0
 18 23  2  0  0  0  0
 19  1  1  0  0  0  0
 19 18  1  0  0  0  0
 20 19  2  0  0  0  0
 21  3  1  0  0  0  0
 21 20  1  0  0  0  0
 22 21  2  0  0  0  0
 22 23  1  0  0  0  0
M  END
>  <CHROM.1>
78.23564071,-131.93750899,-63.61944202,179.89299482,-166.41697102,-127.80893586
174.62470068,118.14806620,93.78712606,126.40566355,-96.17991263,-20.80059679
-5.47359555,9.29447541,-2.08251221,-0.44729566,2.24656092

>  <Name>
1uui_lig

>  <RI>
0

>  <Rbt.Current_Directory>
/home/itssahil/PROJECTS/Mol_Feturizer/New_Systems/rnas/1uui

>  <Rbt.Executable>
rbdock ($Id: //depot/dev/client3/rdock/2013.1/src/exe/rbdock.cxx#4 $)

>  <Rbt.Library>
libRbt.so (2013.1, Build901 2013/11/27)

>  <Rbt.Parameter_File>
/export/apps/rDock/src/rDock_2013.1_src/data/scripts/dock_solv.prm

>  <Rbt.Receptor>
prm/blind_docking_40.prm

>  <SCORE>
-28.2087

>  <SCORE.INTER>
-23.8698

>  <SCORE.INTER.CONST>
1

>  <SCORE.INTER.POLAR>
-2.95031

>  <SCORE.INTER.ROT>
10

>  <SCORE.INTER.SOLV>
7.04611

>  <SCORE.INTER.VDW>
-18.6942

>  <SCORE.INTER.norm>
-1.03782

>  <SCORE.INTRA>
-4.37486

>  <SCORE.INTRA.DIHEDRAL>
-2.55191

>  <SCORE.INTRA.DIHEDRAL.0>
23.4151

>  <SCORE.INTRA.POLAR>
0

>  <SCORE.INTRA.POLAR.0>
0

>  <SCORE.INTRA.REPUL>
0.0376469

>  <SCORE.INTRA.REPUL.0>
0

>  <SCORE.INTRA.SOLV>
0.49732

>  <SCORE.INTRA.SOLV.lig_0>
-17.3568

>  <SCORE.INTRA.VDW>
-3.5358

>  <SCORE.INTRA.VDW.0>
1.0768

>  <SCORE.INTRA.norm>
-0.190211

>  <SCORE.RESTR>
0.0358669

>  <SCORE.RESTR.CAVITY>
0.0358669

>  <SCORE.RESTR.norm>
0.00155943

>  <SCORE.SYSTEM>
0

>  <SCORE.SYSTEM.CONST>
0

>  <SCORE.SYSTEM.DIHEDRAL>
0

>  <SCORE.SYSTEM.SOLV>
0

>  <SCORE.SYSTEM.norm>
0

>  <SCORE.heavy>
23

>  <SCORE.norm>
-1.22647

>  <RMSD>
14.906

$$$$
1uui_lig
 OpenBabel11021811413D
libRbt.so/2013.1/901 2013/11/27
 23 24  0  0  0  0  0  0  0  0999 V2000
  -19.7826   -6.9503    9.3909 C   0  0  0  0  0  0  0  0  0  0  0  0
  -18.3267   -7.9815    7.0956 O   0  0  0  0  0  0  0  0  0  0  0  0
  -15.7781   -8.2110   12.1902 O   0  0  0  0  0  0  0  0  0  0  0  0
  -19.1419   -9.1435    6.8973 C   0  0  0  0  0  0  0  0  0  0  0  0
  -16.2997   -9.3120   12.9385 C   0  0  0  0  0  0  0  0  0  0  0  0
  -19.7476   -5.4745    9.6562 N   0  0  0  0  0  0  0  0  0  0  0  0
  -20.6074   -8.7159    6.8034 C   0  0  0  0  0  0  0  0  0  0  0  0
  -19.8852   -5.1842   11.1093 C   0  0  0  0  0  0  0  0  0  0  0  0
  -20.8239   -4.7744    8.9066 C   0  0  0  0  0  0  0  0  0  0  0  0
  -20.7962   -7.7474    5.6315 C   0  0  0  0  0  0  0  0  0  0  0  0
  -21.2194   -5.6998   11.6749 C   0  0  0  0  0  0  0  0  0  0  0  0
  -22.2180   -5.2925    9.2993 C   0  0  0  0  0  0  0  0  0  0  0  0
  -22.2408   -7.5835    5.3541 N   0  0  0  0  0  0  0  0  0  0  0  0
  -22.1943   -6.0440   10.5928 N   0  0  0  0  0  0  0  0  0  0  0  0
  -23.2611   -6.9116   10.8919 C   0  0  0  0  0  0  0  0  0  0  0  0
  -24.0243   -7.4470    9.8970 N   0  0  0  0  0  0  0  0  0  0  0  0
  -23.6397   -7.1298   12.1837 N   0  0  0  0  0  0  0  0  0  0  0  0
  -17.6908   -8.0416    8.3755 C   0  0  0  0  0  0  0  0  0  0  0  0
  -18.3633   -7.5488    9.5270 C   0  0  0  0  0  0  0  0  0  0  0  0
  -17.7251   -7.6065   10.7971 C   0  0  0  0  0  0  0  0  0  0  0  0
  -16.4191   -8.1555   10.9126 C   0  0  0  0  0  0  0  0  0  0  0  0
  -15.7507   -8.6479    9.7611 C   0  0  0  0  0  0  0  0  0  0  0  0
  -16.3862   -8.5898    8.4929 C   0  0  0  0  0  0  0  0  0  0  0  0
  2  4  1  0  0  0  0
  3  5  1  0  0  0  0
  4  7  1  0  0  0  0
  6  1  1  0  0  0  0
  7 10  1  0  0  0  0
  8  6  1  0  0  0  0
  8 11  1  0  0  0  0
  9  6  1  0  0  0  0
 10 13  1  0  0  0  0
 11 14  1  0  0  0  0
 12  9  1  0  0  0  0
 14 12  1  0  0  0  0
 14 15  1  0  0  0  0
 15 16  1  0  0  0  0
 15 17  1  0  0  0  0
 18  2  1  0  0  0  0
 18 23  2  0  0  0  0
 19  1  1  0  0  0  0
 19 18  1  0  0  0  0
 20 19  2  0  0  0  0
 21  3  1  0  0  0  0
 21 20  1  0  0  0  0
 22 21  2  0  0  0  0
 22 23  1  0  0  0  0
M  END
>  <CHROM.1>
115.38631523,59.68707357,-86.70787801,167.11577295,-169.91405958,-167.84349495
73.04288854,-69.19838369,-86.67089473,-111.78563289,78.56515018,-19.75937926
-7.30639173,9.47931019,2.99632468,0.31551268,-1.78256992

>  <Name>
1uui_lig

>  <RI>
0

>  <Rbt.Current_Directory>
/home/itssahil/PROJECTS/Mol_Feturizer/New_Systems/rnas/1uui

>  <Rbt.Executable>
rbdock ($Id: //depot/dev/client3/rdock/2013.1/src/exe/rbdock.cxx#4 $)

>  <Rbt.Library>
libRbt.so (2013.1, Build901 2013/11/27)

>  <Rbt.Parameter_File>
/export/apps/rDock/src/rDock_2013.1_src/data/scripts/dock_solv.prm

>  <Rbt.Receptor>
prm/blind_docking_100.prm

>  <SCORE>
-25.821

>  <SCORE.INTER>
-23.2085

>  <SCORE.INTER.CONST>
1

>  <SCORE.INTER.POLAR>
-2.16462

>  <SCORE.INTER.ROT>
10

>  <SCORE.INTER.SOLV>
10.0423

>  <SCORE.INTER.VDW>
-21.8711

>  <SCORE.INTER.norm>
-1.00907

>  <SCORE.INTRA>
-2.6829

>  <SCORE.INTRA.DIHEDRAL>
-0.081453

>  <SCORE.INTRA.DIHEDRAL.0>
23.4151

>  <SCORE.INTRA.POLAR>
0

>  <SCORE.INTRA.POLAR.0>
0

>  <SCORE.INTRA.REPUL>
0

>  <SCORE.INTRA.REPUL.0>
0

>  <SCORE.INTRA.SOLV>
0.0296081

>  <SCORE.INTRA.SOLV.lig_0>
-17.3568

>  <SCORE.INTRA.VDW>
-2.65698

>  <SCORE.INTRA.VDW.0>
1.0768

>  <SCORE.INTRA.norm>
-0.116648

>  <SCORE.RESTR>
0.0704727

>  <SCORE.RESTR.CAVITY>
0.0704727

>  <SCORE.RESTR.norm>
0.00306403

>  <SCORE.SYSTEM>
0

>  <SCORE.SYSTEM.CONST>
0

>  <SCORE.SYSTEM.DIHEDRAL>
0

>  <SCORE.SYSTEM.SOLV>
0

>  <SCORE.SYSTEM.norm>
0

>  <SCORE.heavy>
23

>  <SCORE.norm>
-1.12265

>  <RMSD>
14.909

$$$$
1uui_lig
 OpenBabel11021811413D
libRbt.so/2013.1/901 2013/11/27
 23 24  0  0  0  0  0  0  0  0999 V2000
  -21.0930   -7.3337    8.4009 C   0  0  0  0  0  0  0  0  0  0  0  0
  -21.0879   -9.5512    6.5209 O   0  0  0  0  0  0  0  0  0  0  0  0
  -16.6437   -9.0444   10.0559 O   0  0  0  0  0  0  0  0  0  0  0  0
  -21.1112  -10.8649    5.9487 C   0  0  0  0  0  0  0  0  0  0  0  0
  -15.4683   -8.7408    9.3006 C   0  0  0  0  0  0  0  0  0  0  0  0
  -22.0216   -7.6657    9.5310 N   0  0  0  0  0  0  0  0  0  0  0  0
  -21.4138  -10.7536    4.4536 C   0  0  0  0  0  0  0  0  0  0  0  0
  -23.2404   -6.8125    9.4961 C   0  0  0  0  0  0  0  0  0  0  0  0
  -21.3408   -7.5042   10.8428 C   0  0  0  0  0  0  0  0  0  0  0  0
  -20.2770  -10.0122    3.7430 C   0  0  0  0  0  0  0  0  0  0  0  0
  -22.9007   -5.3185    9.6321 C   0  0  0  0  0  0  0  0  0  0  0  0
  -20.8409   -6.0641   11.0490 C   0  0  0  0  0  0  0  0  0  0  0  0
  -20.7292   -9.5855    2.3999 N   0  0  0  0  0  0  0  0  0  0  0  0
  -21.5003   -5.1011   10.1131 N   0  0  0  0  0  0  0  0  0  0  0  0
  -20.8908   -3.8534    9.8845 C   0  0  0  0  0  0  0  0  0  0  0  0
  -19.6291   -3.6009   10.3354 N   0  0  0  0  0  0  0  0  0  0  0  0
  -21.5944   -2.8266    9.3276 N   0  0  0  0  0  0  0  0  0  0  0  0
  -19.9757   -9.4242    7.4115 C   0  0  0  0  0  0  0  0  0  0  0  0
  -19.9334   -8.3554    8.3480 C   0  0  0  0  0  0  0  0  0  0  0  0
  -18.8231   -8.2306    9.2286 C   0  0  0  0  0  0  0  0  0  0  0  0
  -17.7602   -9.1725    9.1710 C   0  0  0  0  0  0  0  0  0  0  0  0
  -17.8058  -10.2394    8.2356 C   0  0  0  0  0  0  0  0  0  0  0  0
  -18.9129  -10.3643    7.3555 C   0  0  0  0  0  0  0  0  0  0  0  0
  2  4  1  0  0  0  0
  3  5  1  0  0  0  0
  4  7  1  0  0  0  0
  6  1  1  0  0  0  0
  7 10  1  0  0  0  0
  8  6  1  0  0  0  0
  8 11  1  0  0  0  0
  9  6  1  0  0  0  0
 10 13  1  0  0  0  0
 11 14  1  0  0  0  0
 12  9  1  0  0  0  0
 14 12  1  0  0  0  0
 14 15  1  0  0  0  0
 15 16  1  0  0  0  0
 15 17  1  0  0  0  0
 18  2  1  0  0  0  0
 18 23  2  0  0  0  0
 19  1  1  0  0  0  0
 19 18  1  0  0  0  0
 20 19  2  0  0  0  0
 21  3  1  0  0  0  0
 21 20  1  0  0  0  0
 22 21  2  0  0  0  0
 22 23  1  0  0  0  0
M  END
>  <CHROM.1>
-136.49492788,64.51417522,-172.40648889,-164.69408883,-52.65789983,178.33003594
136.57279297,22.42955679,-163.80983761,99.94152949,-113.74071046,-20.23386192
-7.79767314,8.25767146,1.75456181,-0.53631048,0.83572171

>  <Name>
1uui_lig

>  <RI>
0

>  <Rbt.Current_Directory>
/home/itssahil/PROJECTS/Mol_Feturizer/New_Systems/rnas/1uui

>  <Rbt.Executable>
rbdock ($Id: //depot/dev/client3/rdock/2013.1/src/exe/rbdock.cxx#4 $)

>  <Rbt.Library>
libRbt.so (2013.1, Build901 2013/11/27)

>  <Rbt.Parameter_File>
/export/apps/rDock/src/rDock_2013.1_src/data/scripts/dock_solv.prm

>  <Rbt.Receptor>
prm/blind_docking_60.prm

>  <SCORE>
-14.4706

>  <SCORE.INTER>
-13.8036

>  <SCORE.INTER.CONST>
1

>  <SCORE.INTER.POLAR>
-2.29696

>  <SCORE.INTER.ROT>
10

>  <SCORE.INTER.SOLV>
7.64861

>  <SCORE.INTER.VDW>
-14.3621

>  <SCORE.INTER.norm>
-0.600157

>  <SCORE.INTRA>
-0.725708

>  <SCORE.INTRA.DIHEDRAL>
-7.58002

>  <SCORE.INTRA.DIHEDRAL.0>
23.4151

>  <SCORE.INTRA.POLAR>
0

>  <SCORE.INTRA.POLAR.0>
0

>  <SCORE.INTRA.REPUL>
0

>  <SCORE.INTRA.REPUL.0>
0

>  <SCORE.INTRA.SOLV>
0.136426

>  <SCORE.INTRA.SOLV.lig_0>
-17.3568

>  <SCORE.INTRA.VDW>
2.99609

>  <SCORE.INTRA.VDW.0>
1.0768

>  <SCORE.INTRA.norm>
-0.0315525

>  <SCORE.RESTR>
0.058667

>  <SCORE.RESTR.CAVITY>
0.058667

>  <SCORE.RESTR.norm>
0.00255074

>  <SCORE.SYSTEM>
0

>  <SCORE.SYSTEM.CONST>
0

>  <SCORE.SYSTEM.DIHEDRAL>
0

>  <SCORE.SYSTEM.SOLV>
0

>  <SCORE.SYSTEM.norm>
0

>  <SCORE.heavy>
23

>  <SCORE.norm>
-0.629159

>  <RMSD>
14.927

$$$$
1uui_lig
 OpenBabel11021811413D
libRbt.so/2013.1/901 2013/11/27
 23 24  0  0  0  0  0  0  0  0999 V2000
  -19.7837   -6.8618    8.1945 C   0  0  0  0  0  0  0  0  0  0  0  0
  -22.6678   -7.0211    8.5231 O   0  0  0  0  0  0  0  0  0  0  0  0
  -20.1727   -1.9547    9.3037 O   0  0  0  0  0  0  0  0  0  0  0  0
  -23.7206   -7.1979    9.4794 C   0  0  0  0  0  0  0  0  0  0  0  0
  -20.9896   -0.9269    8.7378 C   0  0  0  0  0  0  0  0  0  0  0  0
  -18.5162   -6.8778    8.9962 N   0  0  0  0  0  0  0  0  0  0  0  0
  -23.1439   -7.0584   10.8891 C   0  0  0  0  0  0  0  0  0  0  0  0
  -17.3269   -7.0652    8.1215 C   0  0  0  0  0  0  0  0  0  0  0  0
  -18.5507   -7.9524   10.0231 C   0  0  0  0  0  0  0  0  0  0  0  0
  -21.8543   -7.8763   11.0107 C   0  0  0  0  0  0  0  0  0  0  0  0
  -17.3794   -8.3993    7.3576 C   0  0  0  0  0  0  0  0  0  0  0  0
  -18.7242   -9.3413    9.3850 C   0  0  0  0  0  0  0  0  0  0  0  0
  -22.1541   -9.3078   10.7842 N   0  0  0  0  0  0  0  0  0  0  0  0
  -18.4033   -9.3324    7.9238 N   0  0  0  0  0  0  0  0  0  0  0  0
  -18.8841  -10.3813    7.1182 C   0  0  0  0  0  0  0  0  0  0  0  0
  -18.1041  -11.4664    6.8478 N   0  0  0  0  0  0  0  0  0  0  0  0
  -20.0854  -10.2756    6.4815 N   0  0  0  0  0  0  0  0  0  0  0  0
  -22.0401   -5.7502    8.7147 C   0  0  0  0  0  0  0  0  0  0  0  0
  -20.6319   -5.6233    8.5655 C   0  0  0  0  0  0  0  0  0  0  0  0
  -20.0115   -4.3581    8.7614 C   0  0  0  0  0  0  0  0  0  0  0  0
  -20.7985   -3.2256    9.1053 C   0  0  0  0  0  0  0  0  0  0  0  0
  -22.2045   -3.3552    9.2523 C   0  0  0  0  0  0  0  0  0  0  0  0
  -22.8247   -4.6175    9.0581 C   0  0  0  0  0  0  0  0  0  0  0  0
  2  4  1  0  0  0  0
  3  5  1  0  0  0  0
  4  7  1  0  0  0  0
  6  1  1  0  0  0  0
  7 10  1  0  0  0  0
  8  6  1  0  0  0  0
  8 11  1  0  0  0  0
  9  6  1  0  0  0  0
 10 13  1  0  0  0  0
 11 14  1  0  0  0  0
 12  9  1  0  0  0  0
 14 12  1  0  0  0  0
 14 15  1  0  0  0  0
 15 16  1  0  0  0  0
 15 17  1  0  0  0  0
 18  2  1  0  0  0  0
 18 23  2  0  0  0  0
 19  1  1  0  0  0  0
 19 18  1  0  0  0  0
 20 19  2  0  0  0  0
 21  3  1  0  0  0  0
 21 20  1  0  0  0  0
 22 21  2  0  0  0  0
 22 23  1  0  0  0  0
M  END
>  <CHROM.1>
-57.12619875,-46.51027644,-129.41165706,-61.71841307,64.20335586,73.28092654
-52.51928068,-98.75495861,141.56295764,-138.37158314,140.12010411,-20.37899677
-6.87175708,8.80627195,-1.14513790,0.41711611,0.03002723

>  <Name>
1uui_lig

>  <RI>
0

>  <Rbt.Current_Directory>
/home/itssahil/PROJECTS/Mol_Feturizer/New_Systems/rnas/1uui

>  <Rbt.Executable>
rbdock ($Id: //depot/dev/client3/rdock/2013.1/src/exe/rbdock.cxx#4 $)

>  <Rbt.Library>
libRbt.so (2013.1, Build901 2013/11/27)

>  <Rbt.Parameter_File>
/export/apps/rDock/src/rDock_2013.1_src/data/scripts/dock_solv.prm

>  <Rbt.Receptor>
prm/blind_docking_80.prm

>  <SCORE>
-22.5245

>  <SCORE.INTER>
-22.697

>  <SCORE.INTER.CONST>
1

>  <SCORE.INTER.POLAR>
-3.33395

>  <SCORE.INTER.ROT>
10

>  <SCORE.INTER.SOLV>
6.09476

>  <SCORE.INTER.VDW>
-16.3164

>  <SCORE.INTER.norm>
-0.986825

>  <SCORE.INTRA>
-1.30883

>  <SCORE.INTRA.DIHEDRAL>
-11.0899

>  <SCORE.INTRA.DIHEDRAL.0>
23.4151

>  <SCORE.INTRA.POLAR>
0

>  <SCORE.INTRA.POLAR.0>
0

>  <SCORE.INTRA.REPUL>
0

>  <SCORE.INTRA.REPUL.0>
0

>  <SCORE.INTRA.SOLV>
0.568595

>  <SCORE.INTRA.SOLV.lig_0>
-17.3568

>  <SCORE.INTRA.VDW>
3.95184

>  <SCORE.INTRA.VDW.0>
1.0768

>  <SCORE.INTRA.norm>
-0.0569055

>  <SCORE.RESTR>
1.48133

>  <SCORE.RESTR.CAVITY>
1.48133

>  <SCORE.RESTR.norm>
0.0644055

>  <SCORE.SYSTEM>
0

>  <SCORE.SYSTEM.CONST>
0

>  <SCORE.SYSTEM.DIHEDRAL>
0

>  <SCORE.SYSTEM.SOLV>
0

>  <SCORE.SYSTEM.norm>
0

>  <SCORE.heavy>
23

>  <SCORE.norm>
-0.979325

>  <RMSD>
14.948

$$$$
1uui_lig
 OpenBabel11021811413D
libRbt.so/2013.1/901 2013/11/27
 23 24  0  0  0  0  0  0  0  0999 V2000
  -20.7602   -8.2670    6.6200 C   0  0  0  0  0  0  0  0  0  0  0  0
  -21.4976   -5.9799    8.2561 O   0  0  0  0  0  0  0  0  0  0  0  0
  -16.2756   -8.1660    8.9309 O   0  0  0  0  0  0  0  0  0  0  0  0
  -21.8627   -5.2223    9.4166 C   0  0  0  0  0  0  0  0  0  0  0  0
  -16.2673   -9.0337   10.0672 C   0  0  0  0  0  0  0  0  0  0  0  0
  -21.1965   -7.2290    5.6293 N   0  0  0  0  0  0  0  0  0  0  0  0
  -22.0150   -6.1719   10.6058 C   0  0  0  0  0  0  0  0  0  0  0  0
  -22.3730   -7.6928    4.8448 C   0  0  0  0  0  0  0  0  0  0  0  0
  -20.0880   -6.8809    4.7016 C   0  0  0  0  0  0  0  0  0  0  0  0
  -22.5538   -7.5248   10.1300 C   0  0  0  0  0  0  0  0  0  0  0  0
  -22.0612   -8.9649    4.0384 C   0  0  0  0  0  0  0  0  0  0  0  0
  -19.5996   -8.1094    3.9152 C   0  0  0  0  0  0  0  0  0  0  0  0
  -23.9209   -7.3499    9.5907 N   0  0  0  0  0  0  0  0  0  0  0  0
  -20.5908   -9.2295    3.9504 N   0  0  0  0  0  0  0  0  0  0  0  0
  -20.1531  -10.5314    3.6437 C   0  0  0  0  0  0  0  0  0  0  0  0
  -18.8697  -10.7593    3.2440 N   0  0  0  0  0  0  0  0  0  0  0  0
  -21.0340  -11.5718    3.6090 N   0  0  0  0  0  0  0  0  0  0  0  0
  -20.1865   -6.5277    8.4209 C   0  0  0  0  0  0  0  0  0  0  0  0
  -19.7809   -7.6467    7.6435 C   0  0  0  0  0  0  0  0  0  0  0  0
  -18.4776   -8.1909    7.8141 C   0  0  0  0  0  0  0  0  0  0  0  0
  -17.5850   -7.6163    8.7594 C   0  0  0  0  0  0  0  0  0  0  0  0
  -17.9925   -6.4982    9.5333 C   0  0  0  0  0  0  0  0  0  0  0  0
  -19.2934   -5.9549    9.3647 C   0  0  0  0  0  0  0  0  0  0  0  0
  2  4  1  0  0  0  0
  3  5  1  0  0  0  0
  4  7  1  0  0  0  0
  6  1  1  0  0  0  0
  7 10  1  0  0  0  0
  8  6  1  0  0  0  0
  8 11  1  0  0  0  0
  9  6  1  0  0  0  0
 10 13  1  0  0  0  0
 11 14  1  0  0  0  0
 12  9  1  0  0  0  0
 14 12  1  0  0  0  0
 14 15  1  0  0  0  0
 15 16  1  0  0  0  0
 15 17  1  0  0  0  0
 18  2  1  0  0  0  0
 18 23  2  0  0  0  0
 19  1  1  0  0  0  0
 19 18  1  0  0  0  0
 20 19  2  0  0  0  0
 21  3  1  0  0  0  0
 21 20  1  0  0  0  0
 22 21  2  0  0  0  0
 22 23  1  0  0  0  0
M  END
>  <CHROM.1>
-66.92033810,-33.52529594,-166.20502195,-64.68604238,179.11864573,164.38755191
-64.21710034,-42.15538255,159.13260769,57.53384329,-98.46085489,-20.23598608
-7.91423091,7.04793101,1.60547010,0.25308363,-2.05310764

>  <Name>
1uui_lig

>  <RI>
0

>  <Rbt.Current_Directory>
/home/itssahil/PROJECTS/Mol_Feturizer/New_Systems/rnas/1uui

>  <Rbt.Executable>
rbdock ($Id: //depot/dev/client3/rdock/2013.1/src/exe/rbdock.cxx#4 $)

>  <Rbt.Library>
libRbt.so (2013.1, Build901 2013/11/27)

>  <Rbt.Parameter_File>
/export/apps/rDock/src/rDock_2013.1_src/data/scripts/dock_solv.prm

>  <Rbt.Receptor>
prm/blind_docking_60.prm

>  <SCORE>
-26.5746

>  <SCORE.INTER>
-23.0015

>  <SCORE.INTER.CONST>
1

>  <SCORE.INTER.POLAR>
-3.15124

>  <SCORE.INTER.ROT>
10

>  <SCORE.INTER.SOLV>
6.07373

>  <SCORE.INTER.VDW>
-17.1215

>  <SCORE.INTER.norm>
-1.00007

>  <SCORE.INTRA>
-3.57599

>  <SCORE.INTRA.DIHEDRAL>
-10.8862

>  <SCORE.INTRA.DIHEDRAL.0>
23.4151

>  <SCORE.INTRA.POLAR>
-0.60271

>  <SCORE.INTRA.POLAR.0>
0

>  <SCORE.INTRA.REPUL>
0

>  <SCORE.INTRA.REPUL.0>
0

>  <SCORE.INTRA.SOLV>
0.673333

>  <SCORE.INTRA.SOLV.lig_0>
-17.3568

>  <SCORE.INTRA.VDW>
3.57964

>  <SCORE.INTRA.VDW.0>
1.0768

>  <SCORE.INTRA.norm>
-0.155478

>  <SCORE.RESTR>
0.00291146

>  <SCORE.RESTR.CAVITY>
0.00291146

>  <SCORE.RESTR.norm>
0.000126585

>  <SCORE.SYSTEM>
0

>  <SCORE.SYSTEM.CONST>
0

>  <SCORE.SYSTEM.DIHEDRAL>
0

>  <SCORE.SYSTEM.SOLV>
0

>  <SCORE.SYSTEM.norm>
0

>  <SCORE.heavy>
23

>  <SCORE.norm>
-1.15542

>  <RMSD>
15.002

$$$$
1uui_lig
 OpenBabel11021811413D
libRbt.so/2013.1/901 2013/11/27
 23 24  0  0  0  0  0  0  0  0999 V2000
  -19.7302   -7.1223    9.6020 C   0  0  0  0  0  0  0  0  0  0  0  0
  -18.4325   -8.4961    7.3929 O   0  0  0  0  0  0  0  0  0  0  0  0
  -15.6021   -8.1185   12.3275 O   0  0  0  0  0  0  0  0  0  0  0  0
  -19.5495   -9.3836    7.5293 C   0  0  0  0  0  0  0  0  0  0  0  0
  -15.8616   -9.2802   13.1194 C   0  0  0  0  0  0  0  0  0  0  0  0
  -19.6738   -5.6456    9.8579 N   0  0  0  0  0  0  0  0  0  0  0  0
  -19.2406  -10.6917    6.7996 C   0  0  0  0  0  0  0  0  0  0  0  0
  -19.8743   -5.3400   11.3005 C   0  0  0  0  0  0  0  0  0  0  0  0
  -20.6964   -4.9274    9.0522 C   0  0  0  0  0  0  0  0  0  0  0  0
  -18.3102  -11.5600    7.6525 C   0  0  0  0  0  0  0  0  0  0  0  0
  -21.2457   -5.8204   11.8049 C   0  0  0  0  0  0  0  0  0  0  0  0
  -22.1193   -5.4104    9.3811 C   0  0  0  0  0  0  0  0  0  0  0  0
  -18.0092  -12.8171    6.9316 N   0  0  0  0  0  0  0  0  0  0  0  0
  -22.1752   -6.1513   10.6796 N   0  0  0  0  0  0  0  0  0  0  0  0
  -23.2749   -6.9919   10.9333 C   0  0  0  0  0  0  0  0  0  0  0  0
  -23.4943   -7.4955   12.1812 N   0  0  0  0  0  0  0  0  0  0  0  0
  -24.0666   -7.4293    9.9128 N   0  0  0  0  0  0  0  0  0  0  0  0
  -17.7258   -8.4035    8.6332 C   0  0  0  0  0  0  0  0  0  0  0  0
  -18.3196   -7.7404    9.7417 C   0  0  0  0  0  0  0  0  0  0  0  0
  -17.6112   -7.6468   10.9718 C   0  0  0  0  0  0  0  0  0  0  0  0
  -16.3137   -8.2151   11.0904 C   0  0  0  0  0  0  0  0  0  0  0  0
  -15.7240   -8.8777    9.9821 C   0  0  0  0  0  0  0  0  0  0  0  0
  -16.4296   -8.9708    8.7536 C   0  0  0  0  0  0  0  0  0  0  0  0
  2  4  1  0  0  0  0
  3  5  1  0  0  0  0
  4  7  1  0  0  0  0
  6  1  1  0  0  0  0
  7 10  1  0  0  0  0
  8  6  1  0  0  0  0
  8 11  1  0  0  0  0
  9  6  1  0  0  0  0
 10 13  1  0  0  0  0
 11 14  1  0  0  0  0
 12  9  1  0  0  0  0
 14 12  1  0  0  0  0
 14 15  1  0  0  0  0
 15 16  1  0  0  0  0
 15 17  1  0  0  0  0
 18  2  1  0  0  0  0
 18 23  2  0  0  0  0
 19  1  1  0  0  0  0
 19 18  1  0  0  0  0
 20 19  2  0  0  0  0
 21  3  1  0  0  0  0
 21 20  1  0  0  0  0
 22 21  2  0  0  0  0
 22 23  1  0  0  0  0
M  END
>  <CHROM.1>
-106.84747515,78.23367004,-89.52321554,-179.51628476,-52.77525864,0.12632661
-124.24494049,72.87918292,-69.70323963,-119.86167620,92.72197995,-19.33352160
-7.97547515,9.80311658,-2.54028868,0.30527349,-2.31312936

>  <Name>
1uui_lig

>  <RI>
0

>  <Rbt.Current_Directory>
/home/itssahil/PROJECTS/Mol_Feturizer/New_Systems/rnas/1uui

>  <Rbt.Executable>
rbdock ($Id: //depot/dev/client3/rdock/2013.1/src/exe/rbdock.cxx#4 $)

>  <Rbt.Library>
libRbt.so (2013.1, Build901 2013/11/27)

>  <Rbt.Parameter_File>
/export/apps/rDock/src/rDock_2013.1_src/data/scripts/dock_solv.prm

>  <Rbt.Receptor>
prm/blind_docking_80.prm

>  <SCORE>
-31.2872

>  <SCORE.INTER>
-29.1256

>  <SCORE.INTER.CONST>
1

>  <SCORE.INTER.POLAR>
-3.19316

>  <SCORE.INTER.ROT>
10

>  <SCORE.INTER.SOLV>
9.87474

>  <SCORE.INTER.VDW>
-22.3314

>  <SCORE.INTER.norm>
-1.26633

>  <SCORE.INTRA>
-2.19526

>  <SCORE.INTRA.DIHEDRAL>
-0.600311

>  <SCORE.INTRA.DIHEDRAL.0>
23.4151

>  <SCORE.INTRA.POLAR>
0

>  <SCORE.INTRA.POLAR.0>
0

>  <SCORE.INTRA.REPUL>
0

>  <SCORE.INTRA.REPUL.0>
0

>  <SCORE.INTRA.SOLV>
0.00224728

>  <SCORE.INTRA.SOLV.lig_0>
-17.3568

>  <SCORE.INTRA.VDW>
-1.89622

>  <SCORE.INTRA.VDW.0>
1.0768

>  <SCORE.INTRA.norm>
-0.0954459

>  <SCORE.RESTR>
0.033586

>  <SCORE.RESTR.CAVITY>
0.033586

>  <SCORE.RESTR.norm>
0.00146026

>  <SCORE.SYSTEM>
0

>  <SCORE.SYSTEM.CONST>
0

>  <SCORE.SYSTEM.DIHEDRAL>
0

>  <SCORE.SYSTEM.SOLV>
0

>  <SCORE.SYSTEM.norm>
0

>  <SCORE.heavy>
23

>  <SCORE.norm>
-1.36031

>  <RMSD>
15.050

$$$$
1uui_lig
 OpenBabel11021811413D
libRbt.so/2013.1/901 2013/11/27
 23 24  0  0  0  0  0  0  0  0999 V2000
  -19.0818   -7.0405   10.6681 C   0  0  0  0  0  0  0  0  0  0  0  0
  -17.3027   -8.4382    8.8427 O   0  0  0  0  0  0  0  0  0  0  0  0
  -15.6156   -7.8139   14.2527 O   0  0  0  0  0  0  0  0  0  0  0  0
  -16.7846   -9.6615    8.3049 C   0  0  0  0  0  0  0  0  0  0  0  0
  -16.6030   -8.3623   15.1293 C   0  0  0  0  0  0  0  0  0  0  0  0
  -19.4022   -5.7853   11.4241 N   0  0  0  0  0  0  0  0  0  0  0  0
  -17.6183  -10.0652    7.0879 C   0  0  0  0  0  0  0  0  0  0  0  0
  -20.2035   -6.0793   12.6431 C   0  0  0  0  0  0  0  0  0  0  0  0
  -20.1408   -4.8221   10.5656 C   0  0  0  0  0  0  0  0  0  0  0  0
  -17.7573   -8.8770    6.1309 C   0  0  0  0  0  0  0  0  0  0  0  0
  -21.5494   -6.7406   12.3008 C   0  0  0  0  0  0  0  0  0  0  0  0
  -21.4640   -5.4169   10.0543 C   0  0  0  0  0  0  0  0  0  0  0  0
  -17.1945   -9.2379    4.8105 N   0  0  0  0  0  0  0  0  0  0  0  0
  -21.8865   -6.6124   10.8484 N   0  0  0  0  0  0  0  0  0  0  0  0
  -22.8233   -7.5011   10.2886 C   0  0  0  0  0  0  0  0  0  0  0  0
  -22.5851   -8.8434   10.2683 N   0  0  0  0  0  0  0  0  0  0  0  0
  -23.9242   -7.0313    9.6353 N   0  0  0  0  0  0  0  0  0  0  0  0
  -16.8832   -8.2837   10.2015 C   0  0  0  0  0  0  0  0  0  0  0  0
  -17.7193   -7.6067   11.1309 C   0  0  0  0  0  0  0  0  0  0  0  0
  -17.2959   -7.4515   12.4801 C   0  0  0  0  0  0  0  0  0  0  0  0
  -16.0405   -7.9725   12.8961 C   0  0  0  0  0  0  0  0  0  0  0  0
  -15.2084   -8.6492   11.9660 C   0  0  0  0  0  0  0  0  0  0  0  0
  -15.6295   -8.8037   10.6189 C   0  0  0  0  0  0  0  0  0  0  0  0
  2  4  1  0  0  0  0
  3  5  1  0  0  0  0
  4  7  1  0  0  0  0
  6  1  1  0  0  0  0
  7 10  1  0  0  0  0
  8  6  1  0  0  0  0
  8 11  1  0  0  0  0
  9  6  1  0  0  0  0
 10 13  1  0  0  0  0
 11 14  1  0  0  0  0
 12  9  1  0  0  0  0
 14 12  1  0  0  0  0
 14 15  1  0  0  0  0
 15 16  1  0  0  0  0
 15 17  1  0  0  0  0
 18  2  1  0  0  0  0
 18 23  2  0  0  0  0
 19  1  1  0  0  0  0
 19 18  1  0  0  0  0
 20 19  2  0  0  0  0
 21  3  1  0  0  0  0
 21 20  1  0  0  0  0
 22 21  2  0  0  0  0
 22 23  1  0  0  0  0
M  END
>  <CHROM.1>
159.60990976,49.90120974,-92.12071762,120.74605481,-119.52223363,-61.81456201
102.34116963,-83.30064256,-148.41171937,-146.91771235,56.00442494,-18.78040524
-7.71005793,10.48513189,-3.02662094,0.30496363,-1.85028674

>  <Name>
1uui_lig

>  <RI>
0

>  <Rbt.Current_Directory>
/home/itssahil/PROJECTS/Mol_Feturizer/New_Systems/rnas/1uui

>  <Rbt.Executable>
rbdock ($Id: //depot/dev/client3/rdock/2013.1/src/exe/rbdock.cxx#4 $)

>  <Rbt.Library>
libRbt.so (2013.1, Build901 2013/11/27)

>  <Rbt.Parameter_File>
/export/apps/rDock/src/rDock_2013.1_src/data/scripts/dock_solv.prm

>  <Rbt.Receptor>
prm/blind_docking_40.prm

>  <SCORE>
-35.5771

>  <SCORE.INTER>
-37.7592

>  <SCORE.INTER.CONST>
1

>  <SCORE.INTER.POLAR>
-4.20028

>  <SCORE.INTER.ROT>
10

>  <SCORE.INTER.SOLV>
11.5338

>  <SCORE.INTER.VDW>
-25.2832

>  <SCORE.INTER.norm>
-1.64171

>  <SCORE.INTRA>
1.93193

>  <SCORE.INTRA.DIHEDRAL>
-0.999756

>  <SCORE.INTRA.DIHEDRAL.0>
23.4151

>  <SCORE.INTRA.POLAR>
0

>  <SCORE.INTRA.POLAR.0>
0

>  <SCORE.INTRA.REPUL>
0

>  <SCORE.INTRA.REPUL.0>
0

>  <SCORE.INTRA.SOLV>
0.0163583

>  <SCORE.INTRA.SOLV.lig_0>
-17.3568

>  <SCORE.INTRA.VDW>
2.42363

>  <SCORE.INTRA.VDW.0>
1.0768

>  <SCORE.INTRA.norm>
0.0839972

>  <SCORE.RESTR>
0.250218

>  <SCORE.RESTR.CAVITY>
0.250218

>  <SCORE.RESTR.norm>
0.010879

>  <SCORE.SYSTEM>
0

>  <SCORE.SYSTEM.CONST>
0

>  <SCORE.SYSTEM.DIHEDRAL>
0

>  <SCORE.SYSTEM.SOLV>
0

>  <SCORE.SYSTEM.norm>
0

>  <SCORE.heavy>
23

>  <SCORE.norm>
-1.54683

>  <RMSD>
15.128

$$$$
1uui_lig
 OpenBabel11021811413D
libRbt.so/2013.1/901 2013/11/27
 23 24  0  0  0  0  0  0  0  0999 V2000
  -20.7511   -7.1482    7.0703 C   0  0  0  0  0  0  0  0  0  0  0  0
  -22.0228   -4.5646    7.4691 O   0  0  0  0  0  0  0  0  0  0  0  0
  -22.6333   -8.4941   11.5545 O   0  0  0  0  0  0  0  0  0  0  0  0
  -20.6672   -4.1017    7.4258 C   0  0  0  0  0  0  0  0  0  0  0  0
  -21.5114   -8.4445   12.4393 C   0  0  0  0  0  0  0  0  0  0  0  0
  -21.6028   -6.9589    5.8503 N   0  0  0  0  0  0  0  0  0  0  0  0
  -20.3071   -3.4825    8.7771 C   0  0  0  0  0  0  0  0  0  0  0  0
  -22.1989   -8.2472    5.4034 C   0  0  0  0  0  0  0  0  0  0  0  0
  -20.8139   -6.3656    4.7386 C   0  0  0  0  0  0  0  0  0  0  0  0
  -21.2577   -2.3231    9.0919 C   0  0  0  0  0  0  0  0  0  0  0  0
  -21.1222   -9.2804    5.0304 C   0  0  0  0  0  0  0  0  0  0  0  0
  -19.6223   -7.2572    4.3497 C   0  0  0  0  0  0  0  0  0  0  0  0
  -20.4975   -1.0534    9.1146 N   0  0  0  0  0  0  0  0  0  0  0  0
  -19.7734   -8.6534    4.8656 N   0  0  0  0  0  0  0  0  0  0  0  0
  -18.6305   -9.4695    4.9562 C   0  0  0  0  0  0  0  0  0  0  0  0
  -17.6683   -9.2205    5.8895 N   0  0  0  0  0  0  0  0  0  0  0  0
  -18.3944  -10.4420    4.0299 N   0  0  0  0  0  0  0  0  0  0  0  0
  -22.1714   -5.5508    8.4945 C   0  0  0  0  0  0  0  0  0  0  0  0
  -21.5681   -6.8293    8.3438 C   0  0  0  0  0  0  0  0  0  0  0  0
  -21.7224   -7.8084    9.3643 C   0  0  0  0  0  0  0  0  0  0  0  0
  -22.4777   -7.5077   10.5303 C   0  0  0  0  0  0  0  0  0  0  0  0
  -23.0778   -6.2297   10.6784 C   0  0  0  0  0  0  0  0  0  0  0  0
  -22.9254   -5.2522    9.6601 C   0  0  0  0  0  0  0  0  0  0  0  0
  2  4  1  0  0  0  0
  3  5  1  0  0  0  0
  4  7  1  0  0  0  0
  6  1  1  0  0  0  0
  7 10  1  0  0  0  0
  8  6  1  0  0  0  0
  8 11  1  0  0  0  0
  9  6  1  0  0  0  0
 10 13  1  0  0  0  0
 11 14  1  0  0  0  0
 12  9  1  0  0  0  0
 14 12  1  0  0  0  0
 14 15  1  0  0  0  0
 15 16  1  0  0  0  0
 15 17  1  0  0  0  0
 18  2  1  0  0  0  0
 18 23  2  0  0  0  0
 19  1  1  0  0  0  0
 19 18  1  0  0  0  0
 20 19  2  0  0  0  0
 21  3  1  0  0  0  0
 21 20  1  0  0  0  0
 22 21  2  0  0  0  0
 22 23  1  0  0  0  0
M  END
>  <CHROM.1>
-60.15746013,-58.78078454,-95.87640752,-114.52269531,-143.35089486,-121.26236569
-176.52236239,-124.69267830,-69.46781265,-57.38918063,85.17862019,-20.96735899
-6.70767609,7.58803374,-0.62899525,1.15304466,-0.04299698

>  <Name>
1uui_lig

>  <RI>
0

>  <Rbt.Current_Directory>
/home/itssahil/PROJECTS/Mol_Feturizer/New_Systems/rnas/1uui

>  <Rbt.Executable>
rbdock ($Id: //depot/dev/client3/rdock/2013.1/src/exe/rbdock.cxx#4 $)

>  <Rbt.Library>
libRbt.so (2013.1, Build901 2013/11/27)

>  <Rbt.Parameter_File>
/export/apps/rDock/src/rDock_2013.1_src/data/scripts/dock_solv.prm

>  <Rbt.Receptor>
prm/blind_docking_100.prm

>  <SCORE>
-28.313

>  <SCORE.INTER>
-28.5564

>  <SCORE.INTER.CONST>
1

>  <SCORE.INTER.POLAR>
-4.20859

>  <SCORE.INTER.ROT>
10

>  <SCORE.INTER.SOLV>
6.44294

>  <SCORE.INTER.VDW>
-17.4233

>  <SCORE.INTER.norm>
-1.24158

>  <SCORE.INTRA>
-1.86458

>  <SCORE.INTRA.DIHEDRAL>
0.110953

>  <SCORE.INTRA.DIHEDRAL.0>
23.4151

>  <SCORE.INTRA.POLAR>
-0.169642

>  <SCORE.INTRA.POLAR.0>
0

>  <SCORE.INTRA.REPUL>
0

>  <SCORE.INTRA.REPUL.0>
0

>  <SCORE.INTRA.SOLV>
0.337913

>  <SCORE.INTRA.SOLV.lig_0>
-17.3568

>  <SCORE.INTRA.VDW>
-1.51223

>  <SCORE.INTRA.VDW.0>
1.0768

>  <SCORE.INTRA.norm>
-0.0810686

>  <SCORE.RESTR>
2.10795

>  <SCORE.RESTR.CAVITY>
2.10795

>  <SCORE.RESTR.norm>
0.0916499

>  <SCORE.SYSTEM>
0

>  <SCORE.SYSTEM.CONST>
0

>  <SCORE.SYSTEM.DIHEDRAL>
0

>  <SCORE.SYSTEM.SOLV>
0

>  <SCORE.SYSTEM.norm>
0

>  <SCORE.heavy>
23

>  <SCORE.norm>
-1.231

>  <RMSD>
15.154

$$$$
1uui_lig
 OpenBabel11021811413D
libRbt.so/2013.1/901 2013/11/27
 23 24  0  0  0  0  0  0  0  0999 V2000
  -19.3643   -8.7482    9.1473 C   0  0  0  0  0  0  0  0  0  0  0  0
  -21.4509   -7.6978    7.4168 O   0  0  0  0  0  0  0  0  0  0  0  0
  -22.1178   -7.1187   13.0492 O   0  0  0  0  0  0  0  0  0  0  0  0
  -21.6366   -6.4342    6.7665 C   0  0  0  0  0  0  0  0  0  0  0  0
  -20.9718   -6.4678   13.6034 C   0  0  0  0  0  0  0  0  0  0  0  0
  -18.1247   -8.0593    9.6355 N   0  0  0  0  0  0  0  0  0  0  0  0
  -20.7458   -5.3895    7.4405 C   0  0  0  0  0  0  0  0  0  0  0  0
  -17.9662   -6.7217    9.0029 C   0  0  0  0  0  0  0  0  0  0  0  0
  -16.9172   -8.8828    9.3631 C   0  0  0  0  0  0  0  0  0  0  0  0
  -21.4416   -4.0246    7.4326 C   0  0  0  0  0  0  0  0  0  0  0  0
  -17.8394   -6.8203    7.4731 C   0  0  0  0  0  0  0  0  0  0  0  0
  -16.7448   -9.1568    7.8593 C   0  0  0  0  0  0  0  0  0  0  0  0
  -22.6436   -4.0779    8.2944 N   0  0  0  0  0  0  0  0  0  0  0  0
  -17.5534   -8.2179    7.0209 N   0  0  0  0  0  0  0  0  0  0  0  0
  -17.8318   -8.5694    5.6869 C   0  0  0  0  0  0  0  0  0  0  0  0
  -19.0919   -8.4444    5.1815 N   0  0  0  0  0  0  0  0  0  0  0  0
  -16.8824   -9.1674    4.9120 N   0  0  0  0  0  0  0  0  0  0  0  0
  -21.6142   -7.5502    8.8302 C   0  0  0  0  0  0  0  0  0  0  0  0
  -20.6205   -8.0487    9.7164 C   0  0  0  0  0  0  0  0  0  0  0  0
  -20.7894   -7.9036   11.1215 C   0  0  0  0  0  0  0  0  0  0  0  0
  -21.9487   -7.2620   11.6361 C   0  0  0  0  0  0  0  0  0  0  0  0
  -22.9385   -6.7642   10.7486 C   0  0  0  0  0  0  0  0  0  0  0  0
  -22.7716   -6.9093    9.3462 C   0  0  0  0  0  0  0  0  0  0  0  0
  2  4  1  0  0  0  0
  3  5  1  0  0  0  0
  4  7  1  0  0  0  0
  6  1  1  0  0  0  0
  7 10  1  0  0  0  0
  8  6  1  0  0  0  0
  8 11  1  0  0  0  0
  9  6  1  0  0  0  0
 10 13  1  0  0  0  0
 11 14  1  0  0  0  0
 12  9  1  0  0  0  0
 14 12  1  0  0  0  0
 14 15  1  0  0  0  0
 15 16  1  0  0  0  0
 15 17  1  0  0  0  0
 18  2  1  0  0  0  0
 18 23  2  0  0  0  0
 19  1  1  0  0  0  0
 19 18  1  0  0  0  0
 20 19  2  0  0  0  0
 21  3  1  0  0  0  0
 21 20  1  0  0  0  0
 22 21  2  0  0  0  0
 22 23  1  0  0  0  0
M  END
>  <CHROM.1>
51.61390065,-145.84508072,-70.76743133,66.36607147,59.76076330,-58.21244850
-3.95110380,42.65560405,-128.93122146,123.40720151,54.47546971,-19.98333161
-7.30475810,8.68378578,-0.66948632,-0.58540997,1.77542142

>  <Name>
1uui_lig

>  <RI>
0

>  <Rbt.Current_Directory>
/home/itssahil/PROJECTS/Mol_Feturizer/New_Systems/rnas/1uui

>  <Rbt.Executable>
rbdock ($Id: //depot/dev/client3/rdock/2013.1/src/exe/rbdock.cxx#4 $)

>  <Rbt.Library>
libRbt.so (2013.1, Build901 2013/11/27)

>  <Rbt.Parameter_File>
/export/apps/rDock/src/rDock_2013.1_src/data/scripts/dock_solv.prm

>  <Rbt.Receptor>
prm/blind_docking_80.prm

>  <SCORE>
-26.4087

>  <SCORE.INTER>
-21.6606

>  <SCORE.INTER.CONST>
1

>  <SCORE.INTER.POLAR>
-3.05752

>  <SCORE.INTER.ROT>
10

>  <SCORE.INTER.SOLV>
6.47171

>  <SCORE.INTER.VDW>
-16.6726

>  <SCORE.INTER.norm>
-0.941767

>  <SCORE.INTRA>
-5.1176

>  <SCORE.INTRA.DIHEDRAL>
-8.77932

>  <SCORE.INTRA.DIHEDRAL.0>
23.4151

>  <SCORE.INTRA.POLAR>
-0.396109

>  <SCORE.INTRA.POLAR.0>
0

>  <SCORE.INTRA.REPUL>
0

>  <SCORE.INTRA.REPUL.0>
0

>  <SCORE.INTRA.SOLV>
1.32943

>  <SCORE.INTRA.SOLV.lig_0>
-17.3568

>  <SCORE.INTRA.VDW>
-0.0458849

>  <SCORE.INTRA.VDW.0>
1.0768

>  <SCORE.INTRA.norm>
-0.222504

>  <SCORE.RESTR>
0.369494

>  <SCORE.RESTR.CAVITY>
0.369494

>  <SCORE.RESTR.norm>
0.016065

>  <SCORE.SYSTEM>
0

>  <SCORE.SYSTEM.CONST>
0

>  <SCORE.SYSTEM.DIHEDRAL>
0

>  <SCORE.SYSTEM.SOLV>
0

>  <SCORE.SYSTEM.norm>
0

>  <SCORE.heavy>
23

>  <SCORE.norm>
-1.14821

>  <RMSD>
15.279

$$$$
1uui_lig
 OpenBabel11021811413D
libRbt.so/2013.1/901 2013/11/27
 23 24  0  0  0  0  0  0  0  0999 V2000
  -20.0849   -7.9066   11.2819 C   0  0  0  0  0  0  0  0  0  0  0  0
  -18.1778   -7.6986    9.0975 O   0  0  0  0  0  0  0  0  0  0  0  0
  -16.2082   -9.2595   14.2150 O   0  0  0  0  0  0  0  0  0  0  0  0
  -17.4566   -8.3817    8.0644 C   0  0  0  0  0  0  0  0  0  0  0  0
  -16.4653   -8.2189   15.1610 C   0  0  0  0  0  0  0  0  0  0  0  0
  -20.6851   -7.4119   12.5642 N   0  0  0  0  0  0  0  0  0  0  0  0
  -18.2253   -8.2517    6.7485 C   0  0  0  0  0  0  0  0  0  0  0  0
  -22.1706   -7.4952   12.5320 C   0  0  0  0  0  0  0  0  0  0  0  0
  -20.2731   -6.0097   12.8374 C   0  0  0  0  0  0  0  0  0  0  0  0
  -18.0944   -9.5437    5.9358 C   0  0  0  0  0  0  0  0  0  0  0  0
  -22.7706   -6.6353   11.4066 C   0  0  0  0  0  0  0  0  0  0  0  0
  -20.7140   -5.0592   11.7112 C   0  0  0  0  0  0  0  0  0  0  0  0
  -17.1939   -9.3135    4.7840 N   0  0  0  0  0  0  0  0  0  0  0  0
  -21.7776   -5.6637   10.8501 N   0  0  0  0  0  0  0  0  0  0  0  0
  -22.0020   -5.1227    9.5705 C   0  0  0  0  0  0  0  0  0  0  0  0
  -22.1826   -3.7817    9.4024 N   0  0  0  0  0  0  0  0  0  0  0  0
  -22.1778   -5.9375    8.4912 N   0  0  0  0  0  0  0  0  0  0  0  0
  -17.6866   -8.0938   10.3815 C   0  0  0  0  0  0  0  0  0  0  0  0
  -18.5814   -8.2086   11.4803 C   0  0  0  0  0  0  0  0  0  0  0  0
  -18.0874   -8.5976   12.7565 C   0  0  0  0  0  0  0  0  0  0  0  0
  -16.7034   -8.8703   12.9307 C   0  0  0  0  0  0  0  0  0  0  0  0
  -15.8126   -8.7561   11.8312 C   0  0  0  0  0  0  0  0  0  0  0  0
  -16.3042   -8.3669   10.5574 C   0  0  0  0  0  0  0  0  0  0  0  0
  2  4  1  0  0  0  0
  3  5  1  0  0  0  0
  4  7  1  0  0  0  0
  6  1  1  0  0  0  0
  7 10  1  0  0  0  0
  8  6  1  0  0  0  0
  8 11  1  0  0  0  0
  9  6  1  0  0  0  0
 10 13  1  0  0  0  0
 11 14  1  0  0  0  0
 12  9  1  0  0  0  0
 14 12  1  0  0  0  0
 14 15  1  0  0  0  0
 15 16  1  0  0  0  0
 15 17  1  0  0  0  0
 18  2  1  0  0  0  0
 18 23  2  0  0  0  0
 19  1  1  0  0  0  0
 19 18  1  0  0  0  0
 20 19  2  0  0  0  0
 21  3  1  0  0  0  0
 21 20  1  0  0  0  0
 22 21  2  0  0  0  0
 22 23  1  0  0  0  0
M  END
>  <CHROM.1>
164.68721109,-143.68529448,-163.18698153,-107.26303605,-102.69274068,117.70253392
88.59675052,-34.14983867,-144.70889114,-151.36913192,-60.64741595,-19.15417647
-7.48294149,10.56446730,2.89565833,0.56099337,-1.63185574

>  <Name>
1uui_lig

>  <RI>
0

>  <Rbt.Current_Directory>
/home/itssahil/PROJECTS/Mol_Feturizer/New_Systems/rnas/1uui

>  <Rbt.Executable>
rbdock ($Id: //depot/dev/client3/rdock/2013.1/src/exe/rbdock.cxx#4 $)

>  <Rbt.Library>
libRbt.so (2013.1, Build901 2013/11/27)

>  <Rbt.Parameter_File>
/export/apps/rDock/src/rDock_2013.1_src/data/scripts/dock_solv.prm

>  <Rbt.Receptor>
prm/blind_docking_40.prm

>  <SCORE>
-17.1412

>  <SCORE.INTER>
-18.2525

>  <SCORE.INTER.CONST>
1

>  <SCORE.INTER.POLAR>
-1.8278

>  <SCORE.INTER.ROT>
10

>  <SCORE.INTER.SOLV>
7.15571

>  <SCORE.INTER.VDW>
-18.7276

>  <SCORE.INTER.norm>
-0.793588

>  <SCORE.INTRA>
0.67366

>  <SCORE.INTRA.DIHEDRAL>
-0.68471

>  <SCORE.INTRA.DIHEDRAL.0>
23.4151

>  <SCORE.INTRA.POLAR>
0

>  <SCORE.INTRA.POLAR.0>
0

>  <SCORE.INTRA.REPUL>
0

>  <SCORE.INTRA.REPUL.0>
0

>  <SCORE.INTRA.SOLV>
-0.025226

>  <SCORE.INTRA.SOLV.lig_0>
-17.3568

>  <SCORE.INTRA.VDW>
1.02863

>  <SCORE.INTRA.VDW.0>
1.0768

>  <SCORE.INTRA.norm>
0.0292896

>  <SCORE.RESTR>
0.437642

>  <SCORE.RESTR.CAVITY>
0.437642

>  <SCORE.RESTR.norm>
0.0190279

>  <SCORE.SYSTEM>
0

>  <SCORE.SYSTEM.CONST>
0

>  <SCORE.SYSTEM.DIHEDRAL>
0

>  <SCORE.SYSTEM.SOLV>
0

>  <SCORE.SYSTEM.norm>
0

>  <SCORE.heavy>
23

>  <SCORE.norm>
-0.74527

>  <RMSD>
15.337

$$$$
1uui_lig
 OpenBabel11021811413D
libRbt.so/2013.1/901 2013/11/27
 23 24  0  0  0  0  0  0  0  0999 V2000
   -7.7525   -0.9090  -11.7262 C   0  0  0  0  0  0  0  0  0  0  0  0
   -8.6202   -3.2442  -13.2245 O   0  0  0  0  0  0  0  0  0  0  0  0
   -6.2641   -4.0890   -8.1021 O   0  0  0  0  0  0  0  0  0  0  0  0
   -9.8957   -3.8941  -13.2932 C   0  0  0  0  0  0  0  0  0  0  0  0
   -5.3630   -5.1969   -8.1703 C   0  0  0  0  0  0  0  0  0  0  0  0
   -9.2007   -0.6141  -11.9813 N   0  0  0  0  0  0  0  0  0  0  0  0
  -10.8411   -3.2480  -12.2793 C   0  0  0  0  0  0  0  0  0  0  0  0
   -9.5394   -0.7795  -13.4210 C   0  0  0  0  0  0  0  0  0  0  0  0
   -9.5468    0.7647  -11.5458 C   0  0  0  0  0  0  0  0  0  0  0  0
  -11.5927   -4.3317  -11.4997 C   0  0  0  0  0  0  0  0  0  0  0  0
   -8.7330    0.1776  -14.3151 C   0  0  0  0  0  0  0  0  0  0  0  0
   -8.7111    1.8209  -12.2889 C   0  0  0  0  0  0  0  0  0  0  0  0
  -12.2041   -3.7360  -10.2906 N   0  0  0  0  0  0  0  0  0  0  0  0
   -8.0776    1.2674  -13.5261 N   0  0  0  0  0  0  0  0  0  0  0  0
   -6.9840    1.9499  -14.0907 C   0  0  0  0  0  0  0  0  0  0  0  0
   -6.8406    3.2955  -13.9240 N   0  0  0  0  0  0  0  0  0  0  0  0
   -6.1191    1.3076  -14.9267 N   0  0  0  0  0  0  0  0  0  0  0  0
   -8.0322   -3.4535  -11.9374 C   0  0  0  0  0  0  0  0  0  0  0  0
   -7.5920   -2.3420  -11.1679 C   0  0  0  0  0  0  0  0  0  0  0  0
   -7.0038   -2.5554   -9.8903 C   0  0  0  0  0  0  0  0  0  0  0  0
   -6.8574   -3.8763   -9.3861 C   0  0  0  0  0  0  0  0  0  0  0  0
   -7.2992   -4.9840  -10.1564 C   0  0  0  0  0  0  0  0  0  0  0  0
   -7.8853   -4.7724  -11.4320 C   0  0  0  0  0  0  0  0  0  0  0  0
  2  4  1  0  0  0  0
  3  5  1  0  0  0  0
  4  7  1  0  0  0  0
  6  1  1  0  0  0  0
  7 10  1  0  0  0  0
  8  6  1  0  0  0  0
  8 11  1  0  0  0  0
  9  6  1  0  0  0  0
 10 13  1  0  0  0  0
 11 14  1  0  0  0  0
 12  9  1  0  0  0  0
 14 12  1  0  0  0  0
 14 15  1  0  0  0  0
 15 16  1  0  0  0  0
 15 17  1  0  0  0  0
 18  2  1  0  0  0  0
 18 23  2  0  0  0  0
 19  1  1  0  0  0  0
 19 18  1  0  0  0  0
 20 19  2  0  0  0  0
 21  3  1  0  0  0  0
 21 20  1  0  0  0  0
 22 21  2  0  0  0  0
 22 23  1  0  0  0  0
M  END
>  <CHROM.1>
63.75616539,-134.38769235,-99.55455380,164.30454685,-63.85527657,140.70765868
-150.18556018,159.95867092,-126.56617393,59.93552451,-137.42312391,-8.32760584
-1.76203467,-11.86467216,-1.51679130,0.36734931,2.55559599

>  <Name>
1uui_lig

>  <RI>
0

>  <Rbt.Current_Directory>
/home/itssahil/PROJECTS/Mol_Feturizer/New_Systems/rnas/1uui

>  <Rbt.Executable>
rbdock ($Id: //depot/dev/client3/rdock/2013.1/src/exe/rbdock.cxx#4 $)

>  <Rbt.Library>
libRbt.so (2013.1, Build901 2013/11/27)

>  <Rbt.Parameter_File>
/export/apps/rDock/src/rDock_2013.1_src/data/scripts/dock_solv.prm

>  <Rbt.Receptor>
prm/blind_docking_20.prm

>  <SCORE>
-8.87956

>  <SCORE.INTER>
-18.3052

>  <SCORE.INTER.CONST>
1

>  <SCORE.INTER.POLAR>
-2.49692

>  <SCORE.INTER.ROT>
10

>  <SCORE.INTER.SOLV>
15.0448

>  <SCORE.INTER.VDW>
-19.162

>  <SCORE.INTER.norm>
-0.795877

>  <SCORE.INTRA>
1.68895

>  <SCORE.INTRA.DIHEDRAL>
-5.39343

>  <SCORE.INTRA.DIHEDRAL.0>
23.4151

>  <SCORE.INTRA.POLAR>
0

>  <SCORE.INTRA.POLAR.0>
0

>  <SCORE.INTRA.REPUL>
0

>  <SCORE.INTRA.REPUL.0>
0

>  <SCORE.INTRA.SOLV>
0.39223

>  <SCORE.INTRA.SOLV.lig_0>
-17.3568

>  <SCORE.INTRA.VDW>
4.18955

>  <SCORE.INTRA.VDW.0>
1.0768

>  <SCORE.INTRA.norm>
0.0734324

>  <SCORE.RESTR>
7.73665

>  <SCORE.RESTR.CAVITY>
7.73665

>  <SCORE.RESTR.norm>
0.336376

>  <SCORE.SYSTEM>
0

>  <SCORE.SYSTEM.CONST>
0

>  <SCORE.SYSTEM.DIHEDRAL>
0

>  <SCORE.SYSTEM.SOLV>
0

>  <SCORE.SYSTEM.norm>
0

>  <SCORE.heavy>
23

>  <SCORE.norm>
-0.386068

>  <RMSD>
15.576

$$$$
1uui_lig
 OpenBabel11021811413D
libRbt.so/2013.1/901 2013/11/27
 23 24  0  0  0  0  0  0  0  0999 V2000
   -7.4471   -2.0768  -12.5491 C   0  0  0  0  0  0  0  0  0  0  0  0
   -9.7651   -1.1404  -14.0329 O   0  0  0  0  0  0  0  0  0  0  0  0
   -4.8282    1.6090  -14.7893 O   0  0  0  0  0  0  0  0  0  0  0  0
  -10.5420   -0.4788  -13.0265 C   0  0  0  0  0  0  0  0  0  0  0  0
   -5.0309    3.0110  -14.5966 C   0  0  0  0  0  0  0  0  0  0  0  0
   -8.4187   -1.7814  -11.4454 N   0  0  0  0  0  0  0  0  0  0  0  0
  -10.6060    1.0154  -13.3465 C   0  0  0  0  0  0  0  0  0  0  0  0
   -7.7221   -1.6329  -10.1387 C   0  0  0  0  0  0  0  0  0  0  0  0
   -9.4455   -2.8516  -11.3410 C   0  0  0  0  0  0  0  0  0  0  0  0
   -9.4140    1.7385  -12.7114 C   0  0  0  0  0  0  0  0  0  0  0  0
   -6.9771   -2.9167   -9.7351 C   0  0  0  0  0  0  0  0  0  0  0  0
   -8.8089   -4.2226  -11.0563 C   0  0  0  0  0  0  0  0  0  0  0  0
   -9.8177    2.3018  -11.4036 N   0  0  0  0  0  0  0  0  0  0  0  0
   -7.4071   -4.0967  -10.5490 N   0  0  0  0  0  0  0  0  0  0  0  0
   -6.5568   -5.2156  -10.6230 C   0  0  0  0  0  0  0  0  0  0  0  0
   -6.1983   -5.8946   -9.4964 N   0  0  0  0  0  0  0  0  0  0  0  0
   -5.9659   -5.5640  -11.8016 N   0  0  0  0  0  0  0  0  0  0  0  0
   -8.5244   -0.4545  -14.2240 C   0  0  0  0  0  0  0  0  0  0  0  0
   -7.3636   -0.8758  -13.5195 C   0  0  0  0  0  0  0  0  0  0  0  0
   -6.1330   -0.1877  -13.7094 C   0  0  0  0  0  0  0  0  0  0  0  0
   -6.0660    0.9172  -14.6011 C   0  0  0  0  0  0  0  0  0  0  0  0
   -7.2266    1.3346  -15.3040 C   0  0  0  0  0  0  0  0  0  0  0  0
   -8.4556    0.6494  -15.1145 C   0  0  0  0  0  0  0  0  0  0  0  0
  2  4  1  0  0  0  0
  3  5  1  0  0  0  0
  4  7  1  0  0  0  0
  6  1  1  0  0  0  0
  7 10  1  0  0  0  0
  8  6  1  0  0  0  0
  8 11  1  0  0  0  0
  9  6  1  0  0  0  0
 10 13  1  0  0  0  0
 11 14  1  0  0  0  0
 12  9  1  0  0  0  0
 14 12  1  0  0  0  0
 14 15  1  0  0  0  0
 15 16  1  0  0  0  0
 15 17  1  0  0  0  0
 18  2  1  0  0  0  0
 18 23  2  0  0  0  0
 19  1  1  0  0  0  0
 19 18  1  0  0  0  0
 20 19  2  0  0  0  0
 21  3  1  0  0  0  0
 21 20  1  0  0  0  0
 22 21  2  0  0  0  0
 22 23  1  0  0  0  0
M  END
>  <CHROM.1>
49.88992228,-88.42035252,-111.70239875,-95.46077783,54.28723472,59.81208342
2.04272304,2.31534023,94.23985331,-61.12098185,-128.13908909,-7.77348455
-1.18277206,-12.51659476,-1.49541735,0.28724508,-0.55207985

>  <Name>
1uui_lig

>  <RI>
0

>  <Rbt.Current_Directory>
/home/itssahil/PROJECTS/Mol_Feturizer/New_Systems/rnas/1uui

>  <Rbt.Executable>
rbdock ($Id: //depot/dev/client3/rdock/2013.1/src/exe/rbdock.cxx#4 $)

>  <Rbt.Library>
libRbt.so (2013.1, Build901 2013/11/27)

>  <Rbt.Parameter_File>
/export/apps/rDock/src/rDock_2013.1_src/data/scripts/dock_solv.prm

>  <Rbt.Receptor>
prm/blind_docking_20.prm

>  <SCORE>
-10.1475

>  <SCORE.INTER>
-23.7476

>  <SCORE.INTER.CONST>
1

>  <SCORE.INTER.POLAR>
-3.29823

>  <SCORE.INTER.ROT>
10

>  <SCORE.INTER.SOLV>
15.9407

>  <SCORE.INTER.VDW>
-20.4179

>  <SCORE.INTER.norm>
-1.0325

>  <SCORE.INTRA>
7.39586

>  <SCORE.INTRA.DIHEDRAL>
-1.21299

>  <SCORE.INTRA.DIHEDRAL.0>
23.4151

>  <SCORE.INTRA.POLAR>
0

>  <SCORE.INTRA.POLAR.0>
0

>  <SCORE.INTRA.REPUL>
0

>  <SCORE.INTRA.REPUL.0>
0

>  <SCORE.INTRA.SOLV>
0.576211

>  <SCORE.INTRA.SOLV.lig_0>
-17.3568

>  <SCORE.INTRA.VDW>
7.71425

>  <SCORE.INTRA.VDW.0>
1.0768

>  <SCORE.INTRA.norm>
0.321559

>  <SCORE.RESTR>
6.20421

>  <SCORE.RESTR.CAVITY>
6.20421

>  <SCORE.RESTR.norm>
0.269748

>  <SCORE.SYSTEM>
0

>  <SCORE.SYSTEM.CONST>
0

>  <SCORE.SYSTEM.DIHEDRAL>
0

>  <SCORE.SYSTEM.SOLV>
0

>  <SCORE.SYSTEM.norm>
0

>  <SCORE.heavy>
23

>  <SCORE.norm>
-0.441197

>  <RMSD>
15.638

$$$$
1uui_lig
 OpenBabel11021811413D
libRbt.so/2013.1/901 2013/11/27
 23 24  0  0  0  0  0  0  0  0999 V2000
   -7.4692   -1.8631  -12.5209 C   0  0  0  0  0  0  0  0  0  0  0  0
   -9.3695    0.3208  -12.2553 O   0  0  0  0  0  0  0  0  0  0  0  0
   -4.8302    1.1314  -15.6081 O   0  0  0  0  0  0  0  0  0  0  0  0
  -10.5187   -0.0015  -13.0487 C   0  0  0  0  0  0  0  0  0  0  0  0
   -3.9140    2.0177  -14.9608 C   0  0  0  0  0  0  0  0  0  0  0  0
   -8.4351   -1.6933  -11.3862 N   0  0  0  0  0  0  0  0  0  0  0  0
  -11.1101    1.2885  -13.6191 C   0  0  0  0  0  0  0  0  0  0  0  0
   -7.7291   -1.6651  -10.0764 C   0  0  0  0  0  0  0  0  0  0  0  0
   -9.4459   -2.7836  -11.3812 C   0  0  0  0  0  0  0  0  0  0  0  0
  -11.8869    2.0349  -12.5298 C   0  0  0  0  0  0  0  0  0  0  0  0
   -6.9627   -2.9715   -9.8080 C   0  0  0  0  0  0  0  0  0  0  0  0
   -8.7877   -4.1666  -11.2390 C   0  0  0  0  0  0  0  0  0  0  0  0
  -13.1353    1.3015  -12.2230 N   0  0  0  0  0  0  0  0  0  0  0  0
   -7.3834   -4.0710  -10.7320 N   0  0  0  0  0  0  0  0  0  0  0  0
   -6.5182   -5.1643  -10.9234 C   0  0  0  0  0  0  0  0  0  0  0  0
   -5.9340   -5.3874  -12.1350 N   0  0  0  0  0  0  0  0  0  0  0  0
   -6.3503   -6.0988   -9.9445 N   0  0  0  0  0  0  0  0  0  0  0  0
   -8.2318    0.5205  -13.0990 C   0  0  0  0  0  0  0  0  0  0  0  0
   -7.2748   -0.5186  -13.2595 C   0  0  0  0  0  0  0  0  0  0  0  0
   -6.1426   -0.3137  -14.0961 C   0  0  0  0  0  0  0  0  0  0  0  0
   -5.9702    0.9265  -14.7687 C   0  0  0  0  0  0  0  0  0  0  0  0
   -6.9282    1.9617  -14.6075 C   0  0  0  0  0  0  0  0  0  0  0  0
   -8.0580    1.7588  -13.7720 C   0  0  0  0  0  0  0  0  0  0  0  0
  2  4  1  0  0  0  0
  3  5  1  0  0  0  0
  4  7  1  0  0  0  0
  6  1  1  0  0  0  0
  7 10  1  0  0  0  0
  8  6  1  0  0  0  0
  8 11  1  0  0  0  0
  9  6  1  0  0  0  0
 10 13  1  0  0  0  0
 11 14  1  0  0  0  0
 12  9  1  0  0  0  0
 14 12  1  0  0  0  0
 14 15  1  0  0  0  0
 15 16  1  0  0  0  0
 15 17  1  0  0  0  0
 18  2  1  0  0  0  0
 18 23  2  0  0  0  0
 19  1  1  0  0  0  0
 19 18  1  0  0  0  0
 20 19  2  0  0  0  0
 21  3  1  0  0  0  0
 21 20  1  0  0  0  0
 22 21  2  0  0  0  0
 22 23  1  0  0  0  0
M  END
>  <CHROM.1>
-80.78585889,-76.43754623,-104.53333175,-71.35391159,-45.66202594,-113.64874876
-12.62398913,-141.67569090,-100.02553375,-18.54696921,-106.92185484,-7.96449349
-1.06002731,-12.48978637,-1.29394373,0.30892226,-0.54214903

>  <Name>
1uui_lig

>  <RI>
0

>  <Rbt.Current_Directory>
/home/itssahil/PROJECTS/Mol_Feturizer/New_Systems/rnas/1uui

>  <Rbt.Executable>
rbdock ($Id: //depot/dev/client3/rdock/2013.1/src/exe/rbdock.cxx#4 $)

>  <Rbt.Library>
libRbt.so (2013.1, Build901 2013/11/27)

>  <Rbt.Parameter_File>
/export/apps/rDock/src/rDock_2013.1_src/data/scripts/dock_solv.prm

>  <Rbt.Receptor>
prm/blind_docking_20.prm

>  <SCORE>
-6.92557

>  <SCORE.INTER>
-10.8828

>  <SCORE.INTER.CONST>
1

>  <SCORE.INTER.POLAR>
-0.698621

>  <SCORE.INTER.ROT>
10

>  <SCORE.INTER.SOLV>
14.0267

>  <SCORE.INTER.VDW>
-19.8687

>  <SCORE.INTER.norm>
-0.473165

>  <SCORE.INTRA>
-1.3914

>  <SCORE.INTRA.DIHEDRAL>
-3.15533

>  <SCORE.INTRA.DIHEDRAL.0>
23.4151

>  <SCORE.INTRA.POLAR>
-0.317755

>  <SCORE.INTRA.POLAR.0>
0

>  <SCORE.INTRA.REPUL>
0

>  <SCORE.INTRA.REPUL.0>
0

>  <SCORE.INTRA.SOLV>
0.561723

>  <SCORE.INTRA.SOLV.lig_0>
-17.3568

>  <SCORE.INTRA.VDW>
0.985771

>  <SCORE.INTRA.VDW.0>
1.0768

>  <SCORE.INTRA.norm>
-0.0604958

>  <SCORE.RESTR>
5.34864

>  <SCORE.RESTR.CAVITY>
5.34864

>  <SCORE.RESTR.norm>
0.232549

>  <SCORE.SYSTEM>
0

>  <SCORE.SYSTEM.CONST>
0

>  <SCORE.SYSTEM.DIHEDRAL>
0

>  <SCORE.SYSTEM.SOLV>
0

>  <SCORE.SYSTEM.norm>
0

>  <SCORE.heavy>
23

>  <SCORE.norm>
-0.301112

>  <RMSD>
15.738

$$$$
1uui_lig
 OpenBabel11021811413D
libRbt.so/2013.1/901 2013/11/27
 23 24  0  0  0  0  0  0  0  0999 V2000
   -7.2743   -1.6367  -12.8211 C   0  0  0  0  0  0  0  0  0  0  0  0
   -5.3466    0.4722  -13.3579 O   0  0  0  0  0  0  0  0  0  0  0  0
  -10.8591    1.9035  -13.1001 O   0  0  0  0  0  0  0  0  0  0  0  0
   -4.7114    1.1730  -14.4347 C   0  0  0  0  0  0  0  0  0  0  0  0
  -11.6339    0.7582  -12.7369 C   0  0  0  0  0  0  0  0  0  0  0  0
   -8.2665   -2.5637  -13.4578 N   0  0  0  0  0  0  0  0  0  0  0  0
   -4.8721    0.3630  -15.7220 C   0  0  0  0  0  0  0  0  0  0  0  0
   -9.4538   -2.7662  -12.5836 C   0  0  0  0  0  0  0  0  0  0  0  0
   -7.6448   -3.8795  -13.7621 C   0  0  0  0  0  0  0  0  0  0  0  0
   -4.2939   -1.0429  -15.5317 C   0  0  0  0  0  0  0  0  0  0  0  0
   -9.0724   -3.3934  -11.2319 C   0  0  0  0  0  0  0  0  0  0  0  0
   -7.1086   -4.5610  -12.4916 C   0  0  0  0  0  0  0  0  0  0  0  0
   -3.0255   -1.1614  -16.2851 N   0  0  0  0  0  0  0  0  0  0  0  0
   -7.6904   -3.9675  -11.2476 N   0  0  0  0  0  0  0  0  0  0  0  0
   -7.0302   -4.1794  -10.0230 C   0  0  0  0  0  0  0  0  0  0  0  0
   -6.7553   -5.4422   -9.5885 N   0  0  0  0  0  0  0  0  0  0  0  0
   -6.7713   -3.1373   -9.1823 N   0  0  0  0  0  0  0  0  0  0  0  0
   -6.7299    0.8296  -13.2890 C   0  0  0  0  0  0  0  0  0  0  0  0
   -7.7095   -0.1676  -13.0295 C   0  0  0  0  0  0  0  0  0  0  0  0
   -9.0845    0.1919  -12.9663 C   0  0  0  0  0  0  0  0  0  0  0  0
   -9.4760    1.5442  -13.1622 C   0  0  0  0  0  0  0  0  0  0  0  0
   -8.4953    2.5378  -13.4198 C   0  0  0  0  0  0  0  0  0  0  0  0
   -7.1228    2.1801  -13.4842 C   0  0  0  0  0  0  0  0  0  0  0  0
  2  4  1  0  0  0  0
  3  5  1  0  0  0  0
  4  7  1  0  0  0  0
  6  1  1  0  0  0  0
  7 10  1  0  0  0  0
  8  6  1  0  0  0  0
  8 11  1  0  0  0  0
  9  6  1  0  0  0  0
 10 13  1  0  0  0  0
 11 14  1  0  0  0  0
 12  9  1  0  0  0  0
 14 12  1  0  0  0  0
 14 15  1  0  0  0  0
 15 16  1  0  0  0  0
 15 17  1  0  0  0  0
 18  2  1  0  0  0  0
 18 23  2  0  0  0  0
 19  1  1  0  0  0  0
 19 18  1  0  0  0  0
 20 19  2  0  0  0  0
 21  3  1  0  0  0  0
 21 20  1  0  0  0  0
 22 21  2  0  0  0  0
 22 23  1  0  0  0  0
M  END
>  <CHROM.1>
-87.37525709,-56.78268569,-80.74352936,-107.52249160,-34.40488931,112.79333186
142.39155366,6.11134628,139.01186804,-141.87869966,4.12212784,-7.36570590
-1.18769879,-12.90440025,-1.72560370,0.44331578,-0.52318999

>  <Name>
1uui_lig

>  <RI>
0

>  <Rbt.Current_Directory>
/home/itssahil/PROJECTS/Mol_Feturizer/New_Systems/rnas/1uui

>  <Rbt.Executable>
rbdock ($Id: //depot/dev/client3/rdock/2013.1/src/exe/rbdock.cxx#4 $)

>  <Rbt.Library>
libRbt.so (2013.1, Build901 2013/11/27)

>  <Rbt.Parameter_File>
/export/apps/rDock/src/rDock_2013.1_src/data/scripts/dock_solv.prm

>  <Rbt.Receptor>
prm/blind_docking_20.prm

>  <SCORE>
4.88626

>  <SCORE.INTER>
-3.37294

>  <SCORE.INTER.CONST>
1

>  <SCORE.INTER.POLAR>
0

>  <SCORE.INTER.ROT>
10

>  <SCORE.INTER.SOLV>
14.6256

>  <SCORE.INTER.VDW>
-17.3905

>  <SCORE.INTER.norm>
-0.146649

>  <SCORE.INTRA>
2.74883

>  <SCORE.INTRA.DIHEDRAL>
-6.47682

>  <SCORE.INTRA.DIHEDRAL.0>
23.4151

>  <SCORE.INTRA.POLAR>
0

>  <SCORE.INTRA.POLAR.0>
0

>  <SCORE.INTRA.REPUL>
0

>  <SCORE.INTRA.REPUL.0>
0

>  <SCORE.INTRA.SOLV>
0.0687497

>  <SCORE.INTRA.SOLV.lig_0>
-17.3568

>  <SCORE.INTRA.VDW>
5.95287

>  <SCORE.INTRA.VDW.0>
1.0768

>  <SCORE.INTRA.norm>
0.119515

>  <SCORE.RESTR>
5.51036

>  <SCORE.RESTR.CAVITY>
5.51036

>  <SCORE.RESTR.norm>
0.239581

>  <SCORE.SYSTEM>
0

>  <SCORE.SYSTEM.CONST>
0

>  <SCORE.SYSTEM.DIHEDRAL>
0

>  <SCORE.SYSTEM.SOLV>
0

>  <SCORE.SYSTEM.norm>
0

>  <SCORE.heavy>
23

>  <SCORE.norm>
0.212446

>  <RMSD>
15.768

$$$$
1uui_lig
 OpenBabel11021811413D
libRbt.so/2013.1/901 2013/11/27
 23 24  0  0  0  0  0  0  0  0999 V2000
   -7.9904   -2.0575  -12.2627 C   0  0  0  0  0  0  0  0  0  0  0  0
   -5.8994   -0.6426  -13.7039 O   0  0  0  0  0  0  0  0  0  0  0  0
  -11.0797    1.7308  -13.5146 O   0  0  0  0  0  0  0  0  0  0  0  0
   -5.4415   -0.7040  -15.0605 C   0  0  0  0  0  0  0  0  0  0  0  0
  -11.4061    2.0628  -12.1628 C   0  0  0  0  0  0  0  0  0  0  0  0
   -8.6252   -3.1701  -13.0429 N   0  0  0  0  0  0  0  0  0  0  0  0
   -4.1220    0.0603  -15.1778 C   0  0  0  0  0  0  0  0  0  0  0  0
   -9.5863   -3.9369  -12.2045 C   0  0  0  0  0  0  0  0  0  0  0  0
   -7.5942   -4.0937  -13.5857 C   0  0  0  0  0  0  0  0  0  0  0  0
   -4.3280    1.5251  -14.7791 C   0  0  0  0  0  0  0  0  0  0  0  0
   -8.8996   -4.5880  -10.9919 C   0  0  0  0  0  0  0  0  0  0  0  0
   -6.7503   -4.7238  -12.4646 C   0  0  0  0  0  0  0  0  0  0  0  0
   -3.2511    2.3530  -15.3667 N   0  0  0  0  0  0  0  0  0  0  0  0
   -7.4092   -4.5982  -11.1272 N   0  0  0  0  0  0  0  0  0  0  0  0
   -6.6240   -4.7454   -9.9687 C   0  0  0  0  0  0  0  0  0  0  0  0
   -6.5544   -3.7474   -9.0422 N   0  0  0  0  0  0  0  0  0  0  0  0
   -5.8118   -5.8294   -9.8113 N   0  0  0  0  0  0  0  0  0  0  0  0
   -7.1990   -0.0471  -13.6518 C   0  0  0  0  0  0  0  0  0  0  0  0
   -8.2537   -0.7023  -12.9592 C   0  0  0  0  0  0  0  0  0  0  0  0
   -9.5457   -0.1084  -12.9140 C   0  0  0  0  0  0  0  0  0  0  0  0
   -9.7795    1.1361  -13.5596 C   0  0  0  0  0  0  0  0  0  0  0  0
   -8.7240    1.7884  -14.2492 C   0  0  0  0  0  0  0  0  0  0  0  0
   -7.4345    1.1962  -14.2960 C   0  0  0  0  0  0  0  0  0  0  0  0
  2  4  1  0  0  0  0
  3  5  1  0  0  0  0
  4  7  1  0  0  0  0
  6  1  1  0  0  0  0
  7 10  1  0  0  0  0
  8  6  1  0  0  0  0
  8 11  1  0  0  0  0
  9  6  1  0  0  0  0
 10 13  1  0  0  0  0
 11 14  1  0  0  0  0
 12  9  1  0  0  0  0
 14 12  1  0  0  0  0
 14 15  1  0  0  0  0
 15 16  1  0  0  0  0
 15 17  1  0  0  0  0
 18  2  1  0  0  0  0
 18 23  2  0  0  0  0
 19  1  1  0  0  0  0
 19 18  1  0  0  0  0
 20 19  2  0  0  0  0
 21  3  1  0  0  0  0
 21 20  1  0  0  0  0
 22 21  2  0  0  0  0
 22 23  1  0  0  0  0
M  END
>  <CHROM.1>
121.70616379,-60.15208557,-122.54169406,-158.40849828,-57.09313508,-69.63740082
-6.60325962,98.48278654,128.55144228,-106.50812793,64.21304087,-7.43708636
-1.39943677,-12.84518044,1.62596544,-0.24764606,2.63023736

>  <Name>
1uui_lig

>  <RI>
0

>  <Rbt.Current_Directory>
/home/itssahil/PROJECTS/Mol_Feturizer/New_Systems/rnas/1uui

>  <Rbt.Executable>
rbdock ($Id: //depot/dev/client3/rdock/2013.1/src/exe/rbdock.cxx#4 $)

>  <Rbt.Library>
libRbt.so (2013.1, Build901 2013/11/27)

>  <Rbt.Parameter_File>
/export/apps/rDock/src/rDock_2013.1_src/data/scripts/dock_solv.prm

>  <Rbt.Receptor>
prm/blind_docking_20.prm

>  <SCORE>
-7.05837

>  <SCORE.INTER>
-11.0623

>  <SCORE.INTER.CONST>
1

>  <SCORE.INTER.POLAR>
-2.57358

>  <SCORE.INTER.ROT>
10

>  <SCORE.INTER.SOLV>
16.0751

>  <SCORE.INTER.VDW>
-14.4213

>  <SCORE.INTER.norm>
-0.480969

>  <SCORE.INTRA>
-1.33979

>  <SCORE.INTRA.DIHEDRAL>
0.0617534

>  <SCORE.INTRA.DIHEDRAL.0>
23.4151

>  <SCORE.INTRA.POLAR>
0

>  <SCORE.INTRA.POLAR.0>
0

>  <SCORE.INTRA.REPUL>
0

>  <SCORE.INTRA.REPUL.0>
0

>  <SCORE.INTRA.SOLV>
0.0852712

>  <SCORE.INTRA.SOLV.lig_0>
-17.3568

>  <SCORE.INTRA.VDW>
-1.4133

>  <SCORE.INTRA.VDW.0>
1.0768

>  <SCORE.INTRA.norm>
-0.0582517

>  <SCORE.RESTR>
5.34372

>  <SCORE.RESTR.CAVITY>
5.34372

>  <SCORE.RESTR.norm>
0.232335

>  <SCORE.SYSTEM>
0

>  <SCORE.SYSTEM.CONST>
0

>  <SCORE.SYSTEM.DIHEDRAL>
0

>  <SCORE.SYSTEM.SOLV>
0

>  <SCORE.SYSTEM.norm>
0

>  <SCORE.heavy>
23

>  <SCORE.norm>
-0.306886

>  <RMSD>
15.771

$$$$
1uui_lig
 OpenBabel11021811413D
libRbt.so/2013.1/901 2013/11/27
 23 24  0  0  0  0  0  0  0  0999 V2000
   -7.7519   -1.4530  -12.0865 C   0  0  0  0  0  0  0  0  0  0  0  0
   -8.8545    1.1738  -11.5069 O   0  0  0  0  0  0  0  0  0  0  0  0
   -4.8721    0.7923  -15.5689 O   0  0  0  0  0  0  0  0  0  0  0  0
   -9.9449    1.9851  -11.9616 C   0  0  0  0  0  0  0  0  0  0  0  0
   -5.2260    1.6371  -16.6667 C   0  0  0  0  0  0  0  0  0  0  0  0
   -8.5864   -2.3175  -12.9841 N   0  0  0  0  0  0  0  0  0  0  0  0
  -10.6551    1.2692  -13.1115 C   0  0  0  0  0  0  0  0  0  0  0  0
   -9.6918   -2.9692  -12.2303 C   0  0  0  0  0  0  0  0  0  0  0  0
   -7.7540   -3.3588  -13.6425 C   0  0  0  0  0  0  0  0  0  0  0  0
  -11.0367   -0.1525  -12.6872 C   0  0  0  0  0  0  0  0  0  0  0  0
   -9.1642   -3.8813  -11.1098 C   0  0  0  0  0  0  0  0  0  0  0  0
   -7.0672   -4.2712  -12.6121 C   0  0  0  0  0  0  0  0  0  0  0  0
  -11.4788   -0.9199  -13.8730 N   0  0  0  0  0  0  0  0  0  0  0  0
   -7.7043   -4.1733  -11.2620 N   0  0  0  0  0  0  0  0  0  0  0  0
   -6.9789   -4.6086  -10.1373 C   0  0  0  0  0  0  0  0  0  0  0  0
   -6.6237   -3.7324   -9.1550 N   0  0  0  0  0  0  0  0  0  0  0  0
   -6.4997   -5.8835  -10.0689 N   0  0  0  0  0  0  0  0  0  0  0  0
   -7.8579    1.0751  -12.5283 C   0  0  0  0  0  0  0  0  0  0  0  0
   -7.2890   -0.1884  -12.8465 C   0  0  0  0  0  0  0  0  0  0  0  0
   -6.2949   -0.2810  -13.8600 C   0  0  0  0  0  0  0  0  0  0  0  0
   -5.8731    0.8871  -14.5514 C   0  0  0  0  0  0  0  0  0  0  0  0
   -6.4440    2.1470  -14.2323 C   0  0  0  0  0  0  0  0  0  0  0  0
   -7.4354    2.2408  -13.2203 C   0  0  0  0  0  0  0  0  0  0  0  0
  2  4  1  0  0  0  0
  3  5  1  0  0  0  0
  4  7  1  0  0  0  0
  6  1  1  0  0  0  0
  7 10  1  0  0  0  0
  8  6  1  0  0  0  0
  8 11  1  0  0  0  0
  9  6  1  0  0  0  0
 10 13  1  0  0  0  0
 11 14  1  0  0  0  0
 12  9  1  0  0  0  0
 14 12  1  0  0  0  0
 14 15  1  0  0  0  0
 15 16  1  0  0  0  0
 15 17  1  0  0  0  0
 18  2  1  0  0  0  0
 18 23  2  0  0  0  0
 19  1  1  0  0  0  0
 19 18  1  0  0  0  0
 20 19  2  0  0  0  0
 21  3  1  0  0  0  0
 21 20  1  0  0  0  0
 22 21  2  0  0  0  0
 22 23  1  0  0  0  0
M  END
>  <CHROM.1>
66.24556980,52.92579997,-143.64170503,-169.04056542,-60.24037955,-75.30910364
5.42394352,110.57952677,-134.01224950,108.06356455,139.27094366,-7.90204974
-1.14409728,-12.67701975,-1.61249413,0.31852237,-0.51659247

>  <Name>
1uui_lig

>  <RI>
0

>  <Rbt.Current_Directory>
/home/itssahil/PROJECTS/Mol_Feturizer/New_Systems/rnas/1uui

>  <Rbt.Executable>
rbdock ($Id: //depot/dev/client3/rdock/2013.1/src/exe/rbdock.cxx#4 $)

>  <Rbt.Library>
libRbt.so (2013.1, Build901 2013/11/27)

>  <Rbt.Parameter_File>
/export/apps/rDock/src/rDock_2013.1_src/data/scripts/dock_solv.prm

>  <Rbt.Receptor>
prm/blind_docking_20.prm

>  <SCORE>
-7.94441

>  <SCORE.INTER>
-8.00256

>  <SCORE.INTER.CONST>
1

>  <SCORE.INTER.POLAR>
0

>  <SCORE.INTER.ROT>
10

>  <SCORE.INTER.SOLV>
13.0216

>  <SCORE.INTER.VDW>
-19.9422

>  <SCORE.INTER.norm>
-0.347938

>  <SCORE.INTRA>
-4.48756

>  <SCORE.INTRA.DIHEDRAL>
-11.4935

>  <SCORE.INTRA.DIHEDRAL.0>
23.4151

>  <SCORE.INTRA.POLAR>
0

>  <SCORE.INTRA.POLAR.0>
0

>  <SCORE.INTRA.REPUL>
0

>  <SCORE.INTRA.REPUL.0>
0

>  <SCORE.INTRA.SOLV>
0.67235

>  <SCORE.INTRA.SOLV.lig_0>
-17.3568

>  <SCORE.INTRA.VDW>
0.923027

>  <SCORE.INTRA.VDW.0>
1.0768

>  <SCORE.INTRA.norm>
-0.195111

>  <SCORE.RESTR>
4.54571

>  <SCORE.RESTR.CAVITY>
4.54571

>  <SCORE.RESTR.norm>
0.19764

>  <SCORE.SYSTEM>
0

>  <SCORE.SYSTEM.CONST>
0

>  <SCORE.SYSTEM.DIHEDRAL>
0

>  <SCORE.SYSTEM.SOLV>
0

>  <SCORE.SYSTEM.norm>
0

>  <SCORE.heavy>
23

>  <SCORE.norm>
-0.345409

>  <RMSD>
15.775

$$$$
1uui_lig
 OpenBabel11021811413D
libRbt.so/2013.1/901 2013/11/27
 23 24  0  0  0  0  0  0  0  0999 V2000
   -7.6611   -2.1357  -12.9060 C   0  0  0  0  0  0  0  0  0  0  0  0
   -9.7599   -0.6251  -14.2345 O   0  0  0  0  0  0  0  0  0  0  0  0
   -4.3523    0.8738  -15.2420 O   0  0  0  0  0  0  0  0  0  0  0  0
  -10.6202    0.5076  -14.4096 C   0  0  0  0  0  0  0  0  0  0  0  0
   -4.2150    2.2886  -15.0888 C   0  0  0  0  0  0  0  0  0  0  0  0
   -8.7887   -1.7627  -11.9902 N   0  0  0  0  0  0  0  0  0  0  0  0
  -10.8283    1.1911  -13.0573 C   0  0  0  0  0  0  0  0  0  0  0  0
   -8.2802   -1.2744  -10.6795 C   0  0  0  0  0  0  0  0  0  0  0  0
   -9.6984   -2.9178  -11.7698 C   0  0  0  0  0  0  0  0  0  0  0  0
   -9.4737    1.5436  -12.4347 C   0  0  0  0  0  0  0  0  0  0  0  0
   -7.4565   -2.3469   -9.9466 C   0  0  0  0  0  0  0  0  0  0  0  0
   -8.9573   -4.1124  -11.1453 C   0  0  0  0  0  0  0  0  0  0  0  0
   -9.6860    2.3701  -11.2254 N   0  0  0  0  0  0  0  0  0  0  0  0
   -7.6515   -3.7079  -10.5374 N   0  0  0  0  0  0  0  0  0  0  0  0
   -6.6823   -4.6986  -10.2930 C   0  0  0  0  0  0  0  0  0  0  0  0
   -6.4191   -5.1179   -9.0226 N   0  0  0  0  0  0  0  0  0  0  0  0
   -5.8922   -5.1636  -11.3025 N   0  0  0  0  0  0  0  0  0  0  0  0
   -8.4022   -0.2533  -14.4887 C   0  0  0  0  0  0  0  0  0  0  0  0
   -7.3417   -0.9624  -13.8613 C   0  0  0  0  0  0  0  0  0  0  0  0
   -5.9931   -0.5861  -14.1137 C   0  0  0  0  0  0  0  0  0  0  0  0
   -5.7088    0.4956  -14.9908 C   0  0  0  0  0  0  0  0  0  0  0  0
   -6.7699    1.2009  -15.6169 C   0  0  0  0  0  0  0  0  0  0  0  0
   -8.1161    0.8270  -15.3648 C   0  0  0  0  0  0  0  0  0  0  0  0
  2  4  1  0  0  0  0
  3  5  1  0  0  0  0
  4  7  1  0  0  0  0
  6  1  1  0  0  0  0
  7 10  1  0  0  0  0
  8  6  1  0  0  0  0
  8 11  1  0  0  0  0
  9  6  1  0  0  0  0
 10 13  1  0  0  0  0
 11 14  1  0  0  0  0
 12  9  1  0  0  0  0
 14 12  1  0  0  0  0
 14 15  1  0  0  0  0
 15 16  1  0  0  0  0
 15 17  1  0  0  0  0
 18  2  1  0  0  0  0
 18 23  2  0  0  0  0
 19  1  1  0  0  0  0
 19 18  1  0  0  0  0
 20 19  2  0  0  0  0
 21  3  1  0  0  0  0
 21 20  1  0  0  0  0
 22 21  2  0  0  0  0
 22 23  1  0  0  0  0
M  END
>  <CHROM.1>
-93.76098010,54.92872886,-96.55424791,172.07138367,-171.91688972,61.46225122
-96.28673981,153.31148514,152.95404596,-43.99099786,-131.34314930,-7.77535815
-1.07118763,-12.70672154,-1.56516484,0.33704487,-0.65816982

>  <Name>
1uui_lig

>  <RI>
0

>  <Rbt.Current_Directory>
/home/itssahil/PROJECTS/Mol_Feturizer/New_Systems/rnas/1uui

>  <Rbt.Executable>
rbdock ($Id: //depot/dev/client3/rdock/2013.1/src/exe/rbdock.cxx#4 $)

>  <Rbt.Library>
libRbt.so (2013.1, Build901 2013/11/27)

>  <Rbt.Parameter_File>
/export/apps/rDock/src/rDock_2013.1_src/data/scripts/dock_solv.prm

>  <Rbt.Receptor>
prm/blind_docking_20.prm

>  <SCORE>
-26.0692

>  <SCORE.INTER>
-29.1952

>  <SCORE.INTER.CONST>
1

>  <SCORE.INTER.POLAR>
-3.71868

>  <SCORE.INTER.ROT>
10

>  <SCORE.INTER.SOLV>
16.625

>  <SCORE.INTER.VDW>
-22.8762

>  <SCORE.INTER.norm>
-1.26936

>  <SCORE.INTRA>
-3.66781

>  <SCORE.INTRA.DIHEDRAL>
-8.08142

>  <SCORE.INTRA.DIHEDRAL.0>
23.4151

>  <SCORE.INTRA.POLAR>
-0.508635

>  <SCORE.INTRA.POLAR.0>
0

>  <SCORE.INTRA.REPUL>
0

>  <SCORE.INTRA.REPUL.0>
0

>  <SCORE.INTRA.SOLV>
0.551866

>  <SCORE.INTRA.SOLV.lig_0>
-17.3568

>  <SCORE.INTRA.VDW>
1.82633

>  <SCORE.INTRA.VDW.0>
1.0768

>  <SCORE.INTRA.norm>
-0.15947

>  <SCORE.RESTR>
6.79376

>  <SCORE.RESTR.CAVITY>
6.79376

>  <SCORE.RESTR.norm>
0.295381

>  <SCORE.SYSTEM>
0

>  <SCORE.SYSTEM.CONST>
0

>  <SCORE.SYSTEM.DIHEDRAL>
0

>  <SCORE.SYSTEM.SOLV>
0

>  <SCORE.SYSTEM.norm>
0

>  <SCORE.heavy>
23

>  <SCORE.norm>
-1.13345

>  <RMSD>
15.784

$$$$
1uui_lig
 OpenBabel11021811413D
libRbt.so/2013.1/901 2013/11/27
 23 24  0  0  0  0  0  0  0  0999 V2000
   -7.6186   -1.7416  -12.9877 C   0  0  0  0  0  0  0  0  0  0  0  0
   -9.2866    0.6378  -13.0765 O   0  0  0  0  0  0  0  0  0  0  0  0
   -3.8864    1.1016  -14.8449 O   0  0  0  0  0  0  0  0  0  0  0  0
   -9.6741    1.8277  -12.3780 C   0  0  0  0  0  0  0  0  0  0  0  0
   -3.8312    0.9420  -16.2646 C   0  0  0  0  0  0  0  0  0  0  0  0
   -8.8408   -1.5259  -12.1456 N   0  0  0  0  0  0  0  0  0  0  0  0
  -11.1975    1.8558  -12.2457 C   0  0  0  0  0  0  0  0  0  0  0  0
   -8.4799   -1.0477  -10.7834 C   0  0  0  0  0  0  0  0  0  0  0  0
   -9.6384   -2.7759  -12.0371 C   0  0  0  0  0  0  0  0  0  0  0  0
  -11.8465    1.5680  -13.6033 C   0  0  0  0  0  0  0  0  0  0  0  0
   -7.6028   -2.0629  -10.0311 C   0  0  0  0  0  0  0  0  0  0  0  0
   -8.8229   -3.9160  -11.4036 C   0  0  0  0  0  0  0  0  0  0  0  0
  -11.5220    0.1862  -14.0227 N   0  0  0  0  0  0  0  0  0  0  0  0
   -7.6125   -3.4089  -10.6851 N   0  0  0  0  0  0  0  0  0  0  0  0
   -6.5651   -4.3063  -10.4056 C   0  0  0  0  0  0  0  0  0  0  0  0
   -5.9626   -5.0082  -11.4073 N   0  0  0  0  0  0  0  0  0  0  0  0
   -6.2203   -4.5946   -9.1182 N   0  0  0  0  0  0  0  0  0  0  0  0
   -7.9324    0.7508  -13.5233 C   0  0  0  0  0  0  0  0  0  0  0  0
   -7.0783   -0.3855  -13.4978 C   0  0  0  0  0  0  0  0  0  0  0  0
   -5.7310   -0.2671  -13.9390 C   0  0  0  0  0  0  0  0  0  0  0  0
   -5.2419    0.9840  -14.4035 C   0  0  0  0  0  0  0  0  0  0  0  0
   -6.0976    2.1165  -14.4289 C   0  0  0  0  0  0  0  0  0  0  0  0
   -7.4420    1.9999  -13.9879 C   0  0  0  0  0  0  0  0  0  0  0  0
  2  4  1  0  0  0  0
  3  5  1  0  0  0  0
  4  7  1  0  0  0  0
  6  1  1  0  0  0  0
  7 10  1  0  0  0  0
  8  6  1  0  0  0  0
  8 11  1  0  0  0  0
  9  6  1  0  0  0  0
 10 13  1  0  0  0  0
 11 14  1  0  0  0  0
 12  9  1  0  0  0  0
 14 12  1  0  0  0  0
 14 15  1  0  0  0  0
 15 16  1  0  0  0  0
 15 17  1  0  0  0  0
 18  2  1  0  0  0  0
 18 23  2  0  0  0  0
 19  1  1  0  0  0  0
 19 18  1  0  0  0  0
 20 19  2  0  0  0  0
 21  3  1  0  0  0  0
 21 20  1  0  0  0  0
 22 21  2  0  0  0  0
 22 23  1  0  0  0  0
M  END
>  <CHROM.1>
164.73283753,-48.79347348,-77.51595098,65.01731489,-60.86900613,-135.24538428
165.16244292,-32.15928332,142.55435248,-20.08832776,95.11804456,-7.76997422
-0.79371805,-12.64414033,-1.50291501,0.24716441,-0.61407113

>  <Name>
1uui_lig

>  <RI>
0

>  <Rbt.Current_Directory>
/home/itssahil/PROJECTS/Mol_Feturizer/New_Systems/rnas/1uui

>  <Rbt.Executable>
rbdock ($Id: //depot/dev/client3/rdock/2013.1/src/exe/rbdock.cxx#4 $)

>  <Rbt.Library>
libRbt.so (2013.1, Build901 2013/11/27)

>  <Rbt.Parameter_File>
/export/apps/rDock/src/rDock_2013.1_src/data/scripts/dock_solv.prm

>  <Rbt.Receptor>
prm/blind_docking_20.prm

>  <SCORE>
-17.361

>  <SCORE.INTER>
-14.3802

>  <SCORE.INTER.CONST>
1

>  <SCORE.INTER.POLAR>
-0.911811

>  <SCORE.INTER.ROT>
10

>  <SCORE.INTER.SOLV>
14.9977

>  <SCORE.INTER.VDW>
-21.8133

>  <SCORE.INTER.norm>
-0.625226

>  <SCORE.INTRA>
-7.06404

>  <SCORE.INTRA.DIHEDRAL>
-10.0921

>  <SCORE.INTRA.DIHEDRAL.0>
23.4151

>  <SCORE.INTRA.POLAR>
-1.07636

>  <SCORE.INTRA.POLAR.0>
0

>  <SCORE.INTRA.REPUL>
0

>  <SCORE.INTRA.REPUL.0>
0

>  <SCORE.INTRA.SOLV>
1.29536

>  <SCORE.INTRA.SOLV.lig_0>
-17.3568

>  <SCORE.INTRA.VDW>
0.993966

>  <SCORE.INTRA.VDW.0>
1.0768

>  <SCORE.INTRA.norm>
-0.307132

>  <SCORE.RESTR>
4.08323

>  <SCORE.RESTR.CAVITY>
4.08323

>  <SCORE.RESTR.norm>
0.177532

>  <SCORE.SYSTEM>
0

>  <SCORE.SYSTEM.CONST>
0

>  <SCORE.SYSTEM.DIHEDRAL>
0

>  <SCORE.SYSTEM.SOLV>
0

>  <SCORE.SYSTEM.norm>
0

>  <SCORE.heavy>
23

>  <SCORE.norm>
-0.754826

>  <RMSD>
15.785

$$$$
1uui_lig
 OpenBabel11021811413D
libRbt.so/2013.1/901 2013/11/27
 23 24  0  0  0  0  0  0  0  0999 V2000
   -7.6471   -1.6776  -12.1834 C   0  0  0  0  0  0  0  0  0  0  0  0
   -6.0506   -0.2562  -14.1538 O   0  0  0  0  0  0  0  0  0  0  0  0
  -10.4734    2.4872  -11.8265 O   0  0  0  0  0  0  0  0  0  0  0  0
   -4.8202    0.3517  -13.7410 C   0  0  0  0  0  0  0  0  0  0  0  0
  -11.6912    1.9755  -12.3736 C   0  0  0  0  0  0  0  0  0  0  0  0
   -8.4376   -2.0536  -10.9655 N   0  0  0  0  0  0  0  0  0  0  0  0
   -4.7094    1.7379  -14.3777 C   0  0  0  0  0  0  0  0  0  0  0  0
   -7.5559   -2.5956   -9.8962 C   0  0  0  0  0  0  0  0  0  0  0  0
   -9.4845   -3.0549  -11.3000 C   0  0  0  0  0  0  0  0  0  0  0  0
   -4.9202    1.6372  -15.8917 C   0  0  0  0  0  0  0  0  0  0  0  0
   -6.8174   -3.8666  -10.3491 C   0  0  0  0  0  0  0  0  0  0  0  0
   -8.8738   -4.3408  -11.8829 C   0  0  0  0  0  0  0  0  0  0  0  0
   -4.9578    2.9962  -16.4767 N   0  0  0  0  0  0  0  0  0  0  0  0
   -7.4099   -4.4487  -11.5940 N   0  0  0  0  0  0  0  0  0  0  0  0
   -6.6281   -5.3219  -12.3730 C   0  0  0  0  0  0  0  0  0  0  0  0
   -6.8230   -5.4191  -13.7190 N   0  0  0  0  0  0  0  0  0  0  0  0
   -5.7533   -6.1862  -11.7838 N   0  0  0  0  0  0  0  0  0  0  0  0
   -7.1585    0.4314  -13.5657 C   0  0  0  0  0  0  0  0  0  0  0  0
   -7.9687   -0.2230  -12.5979 C   0  0  0  0  0  0  0  0  0  0  0  0
   -9.0722    0.4634  -12.0191 C   0  0  0  0  0  0  0  0  0  0  0  0
   -9.3624    1.7993  -12.4082 C   0  0  0  0  0  0  0  0  0  0  0  0
   -8.5508    2.4505  -13.3739 C   0  0  0  0  0  0  0  0  0  0  0  0
   -7.4499    1.7661  -13.9531 C   0  0  0  0  0  0  0  0  0  0  0  0
  2  4  1  0  0  0  0
  3  5  1  0  0  0  0
  4  7  1  0  0  0  0
  6  1  1  0  0  0  0
  7 10  1  0  0  0  0
  8  6  1  0  0  0  0
  8 11  1  0  0  0  0
  9  6  1  0  0  0  0
 10 13  1  0  0  0  0
 11 14  1  0  0  0  0
 12  9  1  0  0  0  0
 14 12  1  0  0  0  0
 14 15  1  0  0  0  0
 15 16  1  0  0  0  0
 15 17  1  0  0  0  0
 18  2  1  0  0  0  0
 18 23  2  0  0  0  0
 19  1  1  0  0  0  0
 19 18  1  0  0  0  0
 20 19  2  0  0  0  0
 21  3  1  0  0  0  0
 21 20  1  0  0  0  0
 22 21  2  0  0  0  0
 22 23  1  0  0  0  0
M  END
>  <CHROM.1>
-68.84684664,-52.36147357,-127.58865303,173.88144963,63.12627254,-151.07592303
-98.20337810,122.22802738,-112.94349710,168.18910626,-74.05076387,-7.47418514
-0.95703742,-12.75928941,1.57933943,-0.55606520,2.79265580

>  <Name>
1uui_lig

>  <RI>
0

>  <Rbt.Current_Directory>
/home/itssahil/PROJECTS/Mol_Feturizer/New_Systems/rnas/1uui

>  <Rbt.Executable>
rbdock ($Id: //depot/dev/client3/rdock/2013.1/src/exe/rbdock.cxx#4 $)

>  <Rbt.Library>
libRbt.so (2013.1, Build901 2013/11/27)

>  <Rbt.Parameter_File>
/export/apps/rDock/src/rDock_2013.1_src/data/scripts/dock_solv.prm

>  <Rbt.Receptor>
prm/blind_docking_20.prm

>  <SCORE>
-0.32663

>  <SCORE.INTER>
-7.71966

>  <SCORE.INTER.CONST>
1

>  <SCORE.INTER.POLAR>
-0.557153

>  <SCORE.INTER.ROT>
10

>  <SCORE.INTER.SOLV>
13.2965

>  <SCORE.INTER.VDW>
-17.9881

>  <SCORE.INTER.norm>
-0.335637

>  <SCORE.INTRA>
0.241052

>  <SCORE.INTRA.DIHEDRAL>
-6.29582

>  <SCORE.INTRA.DIHEDRAL.0>
23.4151

>  <SCORE.INTRA.POLAR>
0

>  <SCORE.INTRA.POLAR.0>
0

>  <SCORE.INTRA.REPUL>
0

>  <SCORE.INTRA.REPUL.0>
0

>  <SCORE.INTRA.SOLV>
0.0807637

>  <SCORE.INTRA.SOLV.lig_0>
-17.3568

>  <SCORE.INTRA.VDW>
3.34858

>  <SCORE.INTRA.VDW.0>
1.0768

>  <SCORE.INTRA.norm>
0.0104805

>  <SCORE.RESTR>
7.15198

>  <SCORE.RESTR.CAVITY>
7.15198

>  <SCORE.RESTR.norm>
0.310955

>  <SCORE.SYSTEM>
0

>  <SCORE.SYSTEM.CONST>
0

>  <SCORE.SYSTEM.DIHEDRAL>
0

>  <SCORE.SYSTEM.SOLV>
0

>  <SCORE.SYSTEM.norm>
0

>  <SCORE.heavy>
23

>  <SCORE.norm>
-0.0142013

>  <RMSD>
15.791

$$$$
1uui_lig
 OpenBabel11021811413D
libRbt.so/2013.1/901 2013/11/27
 23 24  0  0  0  0  0  0  0  0999 V2000
   -7.6121   -1.7455  -12.9821 C   0  0  0  0  0  0  0  0  0  0  0  0
   -8.8991    0.7894  -12.3743 O   0  0  0  0  0  0  0  0  0  0  0  0
   -3.9550    0.9236  -15.2100 O   0  0  0  0  0  0  0  0  0  0  0  0
   -9.6944    1.9303  -12.7203 C   0  0  0  0  0  0  0  0  0  0  0  0
   -4.1530    1.5296  -16.4897 C   0  0  0  0  0  0  0  0  0  0  0  0
   -8.7038   -1.5194  -11.9788 N   0  0  0  0  0  0  0  0  0  0  0  0
  -11.1520    1.6554  -12.3472 C   0  0  0  0  0  0  0  0  0  0  0  0
   -8.1477   -1.3106  -10.6143 C   0  0  0  0  0  0  0  0  0  0  0  0
   -9.6516   -2.6647  -11.9579 C   0  0  0  0  0  0  0  0  0  0  0  0
  -11.6044    0.3220  -12.9509 C   0  0  0  0  0  0  0  0  0  0  0  0
   -7.3491   -2.5310  -10.1257 C   0  0  0  0  0  0  0  0  0  0  0  0
   -8.9426   -3.9812  -11.5968 C   0  0  0  0  0  0  0  0  0  0  0  0
  -12.9814    0.0182  -12.5012 N   0  0  0  0  0  0  0  0  0  0  0  0
   -7.6090   -3.7451  -10.9612 N   0  0  0  0  0  0  0  0  0  0  0  0
   -6.6729   -4.7958  -10.9404 C   0  0  0  0  0  0  0  0  0  0  0  0
   -6.6727   -5.7487  -11.9155 N   0  0  0  0  0  0  0  0  0  0  0  0
   -5.8352   -4.9606   -9.8771 N   0  0  0  0  0  0  0  0  0  0  0  0
   -7.6605    0.8204  -13.0891 C   0  0  0  0  0  0  0  0  0  0  0  0
   -6.9936   -0.3939  -13.4084 C   0  0  0  0  0  0  0  0  0  0  0  0
   -5.7596   -0.3579  -14.1154 C   0  0  0  0  0  0  0  0  0  0  0  0
   -5.1967    0.8892  -14.5007 C   0  0  0  0  0  0  0  0  0  0  0  0
   -5.8657    2.0999  -14.1815 C   0  0  0  0  0  0  0  0  0  0  0  0
   -7.0967    2.0652  -13.4750 C   0  0  0  0  0  0  0  0  0  0  0  0
  2  4  1  0  0  0  0
  3  5  1  0  0  0  0
  4  7  1  0  0  0  0
  6  1  1  0  0  0  0
  7 10  1  0  0  0  0
  8  6  1  0  0  0  0
  8 11  1  0  0  0  0
  9  6  1  0  0  0  0
 10 13  1  0  0  0  0
 11 14  1  0  0  0  0
 12  9  1  0  0  0  0
 14 12  1  0  0  0  0
 14 15  1  0  0  0  0
 15 16  1  0  0  0  0
 15 17  1  0  0  0  0
 18  2  1  0  0  0  0
 18 23  2  0  0  0  0
 19  1  1  0  0  0  0
 19 18  1  0  0  0  0
 20 19  2  0  0  0  0
 21  3  1  0  0  0  0
 21 20  1  0  0  0  0
 22 21  2  0  0  0  0
 22 23  1  0  0  0  0
M  END
>  <CHROM.1>
160.90453943,-52.10234479,-80.52961824,175.83479238,-64.92776968,-162.93395494
115.23056658,28.45387829,-151.45793659,-13.80842401,118.76387930,-7.79501403
-0.95300125,-12.59772458,-1.73148863,0.29208120,-0.49551514

>  <Name>
1uui_lig

>  <RI>
0

>  <Rbt.Current_Directory>
/home/itssahil/PROJECTS/Mol_Feturizer/New_Systems/rnas/1uui

>  <Rbt.Executable>
rbdock ($Id: //depot/dev/client3/rdock/2013.1/src/exe/rbdock.cxx#4 $)

>  <Rbt.Library>
libRbt.so (2013.1, Build901 2013/11/27)

>  <Rbt.Parameter_File>
/export/apps/rDock/src/rDock_2013.1_src/data/scripts/dock_solv.prm

>  <Rbt.Receptor>
prm/blind_docking_20.prm

>  <SCORE>
-18.3566

>  <SCORE.INTER>
-20.5454

>  <SCORE.INTER.CONST>
1

>  <SCORE.INTER.POLAR>
-1.93518

>  <SCORE.INTER.ROT>
10

>  <SCORE.INTER.SOLV>
13.6344

>  <SCORE.INTER.VDW>
-22.0578

>  <SCORE.INTER.norm>
-0.89328

>  <SCORE.INTRA>
-3.30365

>  <SCORE.INTRA.DIHEDRAL>
-11.1648

>  <SCORE.INTRA.DIHEDRAL.0>
23.4151

>  <SCORE.INTRA.POLAR>
-0.41469

>  <SCORE.INTRA.POLAR.0>
0

>  <SCORE.INTRA.REPUL>
0

>  <SCORE.INTRA.REPUL.0>
0

>  <SCORE.INTRA.SOLV>
0.562837

>  <SCORE.INTRA.SOLV.lig_0>
-17.3568

>  <SCORE.INTRA.VDW>
3.40725

>  <SCORE.INTRA.VDW.0>
1.0768

>  <SCORE.INTRA.norm>
-0.143637

>  <SCORE.RESTR>
5.49254

>  <SCORE.RESTR.CAVITY>
5.49254

>  <SCORE.RESTR.norm>
0.238806

>  <SCORE.SYSTEM>
0

>  <SCORE.SYSTEM.CONST>
0

>  <SCORE.SYSTEM.DIHEDRAL>
0

>  <SCORE.SYSTEM.SOLV>
0

>  <SCORE.SYSTEM.norm>
0

>  <SCORE.heavy>
23

>  <SCORE.norm>
-0.798111

>  <RMSD>
15.808

$$$$
1uui_lig
 OpenBabel11021811413D
libRbt.so/2013.1/901 2013/11/27
 23 24  0  0  0  0  0  0  0  0999 V2000
   -7.8036   -1.7582  -13.1177 C   0  0  0  0  0  0  0  0  0  0  0  0
   -9.4388    0.6427  -13.0023 O   0  0  0  0  0  0  0  0  0  0  0  0
   -3.9864    1.2049  -14.5703 O   0  0  0  0  0  0  0  0  0  0  0  0
   -9.7587    1.6128  -11.9970 C   0  0  0  0  0  0  0  0  0  0  0  0
   -3.9050    2.0396  -15.7282 C   0  0  0  0  0  0  0  0  0  0  0  0
   -8.8828   -1.6273  -12.0844 N   0  0  0  0  0  0  0  0  0  0  0  0
  -11.1807    2.1249  -12.2312 C   0  0  0  0  0  0  0  0  0  0  0  0
   -8.3100   -1.3628  -10.7366 C   0  0  0  0  0  0  0  0  0  0  0  0
   -9.7220   -2.8536  -12.0344 C   0  0  0  0  0  0  0  0  0  0  0  0
  -12.1098    0.9546  -12.5692 C   0  0  0  0  0  0  0  0  0  0  0  0
   -7.3907   -2.5037  -10.2683 C   0  0  0  0  0  0  0  0  0  0  0  0
   -8.8869   -4.0988  -11.6908 C   0  0  0  0  0  0  0  0  0  0  0  0
  -13.4983    1.4490  -12.7033 N   0  0  0  0  0  0  0  0  0  0  0  0
   -7.5628   -3.7401  -11.0937 N   0  0  0  0  0  0  0  0  0  0  0  0
   -6.5353   -4.7017  -11.0973 C   0  0  0  0  0  0  0  0  0  0  0  0
   -6.2396   -5.4018  -12.2292 N   0  0  0  0  0  0  0  0  0  0  0  0
   -5.9043   -5.0504   -9.9398 N   0  0  0  0  0  0  0  0  0  0  0  0
   -8.0715    0.7808  -13.3992 C   0  0  0  0  0  0  0  0  0  0  0  0
   -7.2327   -0.3649  -13.4696 C   0  0  0  0  0  0  0  0  0  0  0  0
   -5.8723   -0.2220  -13.8605 C   0  0  0  0  0  0  0  0  0  0  0  0
   -5.3550    1.0629  -14.1793 C   0  0  0  0  0  0  0  0  0  0  0  0
   -6.1955    2.2049  -14.1092 C   0  0  0  0  0  0  0  0  0  0  0  0
   -7.5530    2.0636  -13.7182 C   0  0  0  0  0  0  0  0  0  0  0  0
  2  4  1  0  0  0  0
  3  5  1  0  0  0  0
  4  7  1  0  0  0  0
  6  1  1  0  0  0  0
  7 10  1  0  0  0  0
  8  6  1  0  0  0  0
  8 11  1  0  0  0  0
  9  6  1  0  0  0  0
 10 13  1  0  0  0  0
 11 14  1  0  0  0  0
 12  9  1  0  0  0  0
 14 12  1  0  0  0  0
 14 15  1  0  0  0  0
 15 16  1  0  0  0  0
 15 17  1  0  0  0  0
 18  2  1  0  0  0  0
 18 23  2  0  0  0  0
 19  1  1  0  0  0  0
 19 18  1  0  0  0  0
 20 19  2  0  0  0  0
 21  3  1  0  0  0  0
 21 20  1  0  0  0  0
 22 21  2  0  0  0  0
 22 23  1  0  0  0  0
M  END
>  <CHROM.1>
142.24069432,43.12807896,-75.38637420,176.19566540,63.20639534,-144.20787375
-142.66728573,-152.81099967,131.64243404,-30.80469898,133.62414367,-7.93081259
-0.80006819,-12.57974456,-1.22590756,0.26267871,-0.44675819

>  <Name>
1uui_lig

>  <RI>
0

>  <Rbt.Current_Directory>
/home/itssahil/PROJECTS/Mol_Feturizer/New_Systems/rnas/1uui

>  <Rbt.Executable>
rbdock ($Id: //depot/dev/client3/rdock/2013.1/src/exe/rbdock.cxx#4 $)

>  <Rbt.Library>
libRbt.so (2013.1, Build901 2013/11/27)

>  <Rbt.Parameter_File>
/export/apps/rDock/src/rDock_2013.1_src/data/scripts/dock_solv.prm

>  <Rbt.Receptor>
prm/blind_docking_20.prm

>  <SCORE>
-16.0835

>  <SCORE.INTER>
-16.783

>  <SCORE.INTER.CONST>
1

>  <SCORE.INTER.POLAR>
-0.939222

>  <SCORE.INTER.ROT>
10

>  <SCORE.INTER.SOLV>
14.0087

>  <SCORE.INTER.VDW>
-22.9942

>  <SCORE.INTER.norm>
-0.729695

>  <SCORE.INTRA>
-4.23486

>  <SCORE.INTRA.DIHEDRAL>
-7.08612

>  <SCORE.INTRA.DIHEDRAL.0>
23.4151

>  <SCORE.INTRA.POLAR>
-0.744844

>  <SCORE.INTRA.POLAR.0>
0

>  <SCORE.INTRA.REPUL>
0

>  <SCORE.INTRA.REPUL.0>
0

>  <SCORE.INTRA.SOLV>
0.4729

>  <SCORE.INTRA.SOLV.lig_0>
-17.3568

>  <SCORE.INTRA.VDW>
1.60422

>  <SCORE.INTRA.VDW.0>
1.0768

>  <SCORE.INTRA.norm>
-0.184124

>  <SCORE.RESTR>
4.93436

>  <SCORE.RESTR.CAVITY>
4.93436

>  <SCORE.RESTR.norm>
0.214537

>  <SCORE.SYSTEM>
0

>  <SCORE.SYSTEM.CONST>
0

>  <SCORE.SYSTEM.DIHEDRAL>
0

>  <SCORE.SYSTEM.SOLV>
0

>  <SCORE.SYSTEM.norm>
0

>  <SCORE.heavy>
23

>  <SCORE.norm>
-0.699282

>  <RMSD>
15.809

$$$$
1uui_lig
 OpenBabel11021811413D
libRbt.so/2013.1/901 2013/11/27
 23 24  0  0  0  0  0  0  0  0999 V2000
   -7.3034   -2.1197  -13.4566 C   0  0  0  0  0  0  0  0  0  0  0  0
   -5.9488   -0.6176  -15.5446 O   0  0  0  0  0  0  0  0  0  0  0  0
  -10.2627    1.9161  -12.8108 O   0  0  0  0  0  0  0  0  0  0  0  0
   -4.7153   -0.3721  -14.8574 C   0  0  0  0  0  0  0  0  0  0  0  0
   -9.8393    2.3039  -11.5015 C   0  0  0  0  0  0  0  0  0  0  0  0
   -8.4511   -3.0611  -13.6715 N   0  0  0  0  0  0  0  0  0  0  0  0
   -4.2953    1.0804  -15.0876 C   0  0  0  0  0  0  0  0  0  0  0  0
   -9.5747   -2.7629  -12.7424 C   0  0  0  0  0  0  0  0  0  0  0  0
   -8.0208   -4.4729  -13.4922 C   0  0  0  0  0  0  0  0  0  0  0  0
   -4.9280    1.9833  -14.0239 C   0  0  0  0  0  0  0  0  0  0  0  0
   -9.1572   -2.9097  -11.2693 C   0  0  0  0  0  0  0  0  0  0  0  0
   -7.4636   -4.7211  -12.0800 C   0  0  0  0  0  0  0  0  0  0  0  0
   -5.1331    3.3377  -14.5843 N   0  0  0  0  0  0  0  0  0  0  0  0
   -7.8609   -3.6430  -11.1218 N   0  0  0  0  0  0  0  0  0  0  0  0
   -7.1284   -3.4925   -9.9296 C   0  0  0  0  0  0  0  0  0  0  0  0
   -6.6549   -4.5818   -9.2602 N   0  0  0  0  0  0  0  0  0  0  0  0
   -6.9913   -2.2673   -9.3468 N   0  0  0  0  0  0  0  0  0  0  0  0
   -7.0290    0.0175  -14.8547 C   0  0  0  0  0  0  0  0  0  0  0  0
   -7.7221   -0.6778  -13.8264 C   0  0  0  0  0  0  0  0  0  0  0  0
   -8.7987   -0.0437  -13.1461 C   0  0  0  0  0  0  0  0  0  0  0  0
   -9.1788    1.2808  -13.4947 C   0  0  0  0  0  0  0  0  0  0  0  0
   -8.4839    1.9729  -14.5210 C   0  0  0  0  0  0  0  0  0  0  0  0
   -7.4100    1.3407  -15.2014 C   0  0  0  0  0  0  0  0  0  0  0  0
  2  4  1  0  0  0  0
  3  5  1  0  0  0  0
  4  7  1  0  0  0  0
  6  1  1  0  0  0  0
  7 10  1  0  0  0  0
  8  6  1  0  0  0  0
  8 11  1  0  0  0  0
  9  6  1  0  0  0  0
 10 13  1  0  0  0  0
 11 14  1  0  0  0  0
 12  9  1  0  0  0  0
 14 12  1  0  0  0  0
 14 15  1  0  0  0  0
 15 16  1  0  0  0  0
 15 17  1  0  0  0  0
 18  2  1  0  0  0  0
 18 23  2  0  0  0  0
 19  1  1  0  0  0  0
 19 18  1  0  0  0  0
 20 19  2  0  0  0  0
 21  3  1  0  0  0  0
 21 20  1  0  0  0  0
 22 21  2  0  0  0  0
 22 23  1  0  0  0  0
M  END
>  <CHROM.1>
-73.40088015,87.85349303,-65.23821748,-150.88991495,-77.08069745,131.02163547
-174.39636625,-1.61943971,-88.96246112,-119.84214657,74.54335065,-7.46652838
-0.88876815,-12.99588241,-1.77316137,0.52503585,-0.45435429

>  <Name>
1uui_lig

>  <RI>
0

>  <Rbt.Current_Directory>
/home/itssahil/PROJECTS/Mol_Feturizer/New_Systems/rnas/1uui

>  <Rbt.Executable>
rbdock ($Id: //depot/dev/client3/rdock/2013.1/src/exe/rbdock.cxx#4 $)

>  <Rbt.Library>
libRbt.so (2013.1, Build901 2013/11/27)

>  <Rbt.Parameter_File>
/export/apps/rDock/src/rDock_2013.1_src/data/scripts/dock_solv.prm

>  <Rbt.Receptor>
prm/blind_docking_20.prm

>  <SCORE>
-2.00392

>  <SCORE.INTER>
-7.14092

>  <SCORE.INTER.CONST>
1

>  <SCORE.INTER.POLAR>
-0.774597

>  <SCORE.INTER.ROT>
10

>  <SCORE.INTER.SOLV>
15.5647

>  <SCORE.INTER.VDW>
-17.6335

>  <SCORE.INTER.norm>
-0.310475

>  <SCORE.INTRA>
-0.519692

>  <SCORE.INTRA.DIHEDRAL>
-3.22024

>  <SCORE.INTRA.DIHEDRAL.0>
23.4151

>  <SCORE.INTRA.POLAR>
0

>  <SCORE.INTRA.POLAR.0>
0

>  <SCORE.INTRA.REPUL>
0

>  <SCORE.INTRA.REPUL.0>
0

>  <SCORE.INTRA.SOLV>
0.453565

>  <SCORE.INTRA.SOLV.lig_0>
-17.3568

>  <SCORE.INTRA.VDW>
0.863646

>  <SCORE.INTRA.VDW.0>
1.0768

>  <SCORE.INTRA.norm>
-0.0225953

>  <SCORE.RESTR>
5.65669

>  <SCORE.RESTR.CAVITY>
5.65669

>  <SCORE.RESTR.norm>
0.245943

>  <SCORE.SYSTEM>
0

>  <SCORE.SYSTEM.CONST>
0

>  <SCORE.SYSTEM.DIHEDRAL>
0

>  <SCORE.SYSTEM.SOLV>
0

>  <SCORE.SYSTEM.norm>
0

>  <SCORE.heavy>
23

>  <SCORE.norm>
-0.0871269

>  <RMSD>
15.826

$$$$
1uui_lig
 OpenBabel11021811413D
libRbt.so/2013.1/901 2013/11/27
 23 24  0  0  0  0  0  0  0  0999 V2000
   -7.5673   -1.4880  -13.0399 C   0  0  0  0  0  0  0  0  0  0  0  0
   -9.2729    0.8423  -13.3745 O   0  0  0  0  0  0  0  0  0  0  0  0
   -3.7223    1.4124  -14.5450 O   0  0  0  0  0  0  0  0  0  0  0  0
   -9.6826    1.8594  -12.4516 C   0  0  0  0  0  0  0  0  0  0  0  0
   -3.5624    1.9198  -15.8721 C   0  0  0  0  0  0  0  0  0  0  0  0
   -8.7216   -1.2681  -12.1077 N   0  0  0  0  0  0  0  0  0  0  0  0
  -11.2079    1.8470  -12.3390 C   0  0  0  0  0  0  0  0  0  0  0  0
   -8.2547   -1.0669  -10.7091 C   0  0  0  0  0  0  0  0  0  0  0  0
   -9.6678   -2.4139  -12.1545 C   0  0  0  0  0  0  0  0  0  0  0  0
  -11.7390    0.4298  -12.5765 C   0  0  0  0  0  0  0  0  0  0  0  0
   -7.4882   -2.2897  -10.1770 C   0  0  0  0  0  0  0  0  0  0  0  0
   -8.9826   -3.7322  -11.7559 C   0  0  0  0  0  0  0  0  0  0  0  0
  -13.2043    0.4103  -12.3689 N   0  0  0  0  0  0  0  0  0  0  0  0
   -7.6928   -3.4991  -11.0344 N   0  0  0  0  0  0  0  0  0  0  0  0
   -6.7592   -4.5495  -10.9593 C   0  0  0  0  0  0  0  0  0  0  0  0
   -6.3221   -5.0087   -9.7522 N   0  0  0  0  0  0  0  0  0  0  0  0
   -6.1707   -5.0397  -12.0875 N   0  0  0  0  0  0  0  0  0  0  0  0
   -7.8806    0.9819  -13.6713 C   0  0  0  0  0  0  0  0  0  0  0  0
   -7.0071   -0.1298  -13.5219 C   0  0  0  0  0  0  0  0  0  0  0  0
   -5.6223    0.0151  -13.8140 C   0  0  0  0  0  0  0  0  0  0  0  0
   -5.1153    1.2681  -14.2536 C   0  0  0  0  0  0  0  0  0  0  0  0
   -5.9903    2.3760  -14.4030 C   0  0  0  0  0  0  0  0  0  0  0  0
   -7.3723    2.2329  -14.1108 C   0  0  0  0  0  0  0  0  0  0  0  0
  2  4  1  0  0  0  0
  3  5  1  0  0  0  0
  4  7  1  0  0  0  0
  6  1  1  0  0  0  0
  7 10  1  0  0  0  0
  8  6  1  0  0  0  0
  8 11  1  0  0  0  0
  9  6  1  0  0  0  0
 10 13  1  0  0  0  0
 11 14  1  0  0  0  0
 12  9  1  0  0  0  0
 14 12  1  0  0  0  0
 14 15  1  0  0  0  0
 15 16  1  0  0  0  0
 15 17  1  0  0  0  0
 18  2  1  0  0  0  0
 18 23  2  0  0  0  0
 19  1  1  0  0  0  0
 19 18  1  0  0  0  0
 20 19  2  0  0  0  0
 21  3  1  0  0  0  0
 21 20  1  0  0  0  0
 22 21  2  0  0  0  0
 22 23  1  0  0  0  0
M  END
>  <CHROM.1>
170.14461126,30.03072285,-85.79820639,175.94258134,27.93755945,45.77350700
-171.24082521,2.24211144,127.17814129,-31.73138040,125.40448194,-7.82811270
-0.69655117,-12.62643289,-1.85964194,0.24017448,-0.48474168

>  <Name>
1uui_lig

>  <RI>
0

>  <Rbt.Current_Directory>
/home/itssahil/PROJECTS/Mol_Feturizer/New_Systems/rnas/1uui

>  <Rbt.Executable>
rbdock ($Id: //depot/dev/client3/rdock/2013.1/src/exe/rbdock.cxx#4 $)

>  <Rbt.Library>
libRbt.so (2013.1, Build901 2013/11/27)

>  <Rbt.Parameter_File>
/export/apps/rDock/src/rDock_2013.1_src/data/scripts/dock_solv.prm

>  <Rbt.Receptor>
prm/blind_docking_20.prm

>  <SCORE>
-17.5247

>  <SCORE.INTER>
-20.1671

>  <SCORE.INTER.CONST>
1

>  <SCORE.INTER.POLAR>
-0.960916

>  <SCORE.INTER.ROT>
10

>  <SCORE.INTER.SOLV>
15.3848

>  <SCORE.INTER.VDW>
-25.6366

>  <SCORE.INTER.norm>
-0.876829

>  <SCORE.INTRA>
-2.37651

>  <SCORE.INTRA.DIHEDRAL>
-6.13619

>  <SCORE.INTRA.DIHEDRAL.0>
23.4151

>  <SCORE.INTRA.POLAR>
-0.559011

>  <SCORE.INTRA.POLAR.0>
0

>  <SCORE.INTRA.REPUL>
0

>  <SCORE.INTRA.REPUL.0>
0

>  <SCORE.INTRA.SOLV>
0.554536

>  <SCORE.INTRA.SOLV.lig_0>
-17.3568

>  <SCORE.INTRA.VDW>
2.31495

>  <SCORE.INTRA.VDW.0>
1.0768

>  <SCORE.INTRA.norm>
-0.103326

>  <SCORE.RESTR>
5.01887

>  <SCORE.RESTR.CAVITY>
5.01887

>  <SCORE.RESTR.norm>
0.218212

>  <SCORE.SYSTEM>
0

>  <SCORE.SYSTEM.CONST>
0

>  <SCORE.SYSTEM.DIHEDRAL>
0

>  <SCORE.SYSTEM.SOLV>
0

>  <SCORE.SYSTEM.norm>
0

>  <SCORE.heavy>
23

>  <SCORE.norm>
-0.761944

>  <RMSD>
15.827

$$$$
1uui_lig
 OpenBabel11021811413D
libRbt.so/2013.1/901 2013/11/27
 23 24  0  0  0  0  0  0  0  0999 V2000
   -7.7830   -1.4354  -12.1050 C   0  0  0  0  0  0  0  0  0  0  0  0
   -9.0814    1.1524  -11.8428 O   0  0  0  0  0  0  0  0  0  0  0  0
   -4.5459    0.7826  -15.2773 O   0  0  0  0  0  0  0  0  0  0  0  0
  -10.1723    0.3935  -12.3794 C   0  0  0  0  0  0  0  0  0  0  0  0
   -4.8081    1.4866  -16.4937 C   0  0  0  0  0  0  0  0  0  0  0  0
   -8.6171   -2.2904  -13.0120 N   0  0  0  0  0  0  0  0  0  0  0  0
  -10.8269    1.1896  -13.5094 C   0  0  0  0  0  0  0  0  0  0  0  0
   -9.7229   -2.9497  -12.2655 C   0  0  0  0  0  0  0  0  0  0  0  0
   -7.7846   -3.3248  -13.6808 C   0  0  0  0  0  0  0  0  0  0  0  0
  -12.2767    1.5230  -13.1435 C   0  0  0  0  0  0  0  0  0  0  0  0
   -9.1960   -3.8735  -11.1543 C   0  0  0  0  0  0  0  0  0  0  0  0
   -7.0984   -4.2481  -12.6597 C   0  0  0  0  0  0  0  0  0  0  0  0
  -12.2933    2.5013  -12.0330 N   0  0  0  0  0  0  0  0  0  0  0  0
   -7.7361   -4.1642  -11.3089 N   0  0  0  0  0  0  0  0  0  0  0  0
   -7.0113   -4.6113  -10.1886 C   0  0  0  0  0  0  0  0  0  0  0  0
   -6.6323   -3.7403   -9.2105 N   0  0  0  0  0  0  0  0  0  0  0  0
   -6.5563   -5.8951  -10.1209 N   0  0  0  0  0  0  0  0  0  0  0  0
   -7.9456    1.0563  -12.7069 C   0  0  0  0  0  0  0  0  0  0  0  0
   -7.2772   -0.1883  -12.8665 C   0  0  0  0  0  0  0  0  0  0  0  0
   -6.1453   -0.2779  -13.7236 C   0  0  0  0  0  0  0  0  0  0  0  0
   -5.6853    0.8742  -14.4174 C   0  0  0  0  0  0  0  0  0  0  0  0
   -6.3557    2.1153  -14.2569 C   0  0  0  0  0  0  0  0  0  0  0  0
   -7.4848    2.2062  -13.4010 C   0  0  0  0  0  0  0  0  0  0  0  0
  2  4  1  0  0  0  0
  3  5  1  0  0  0  0
  4  7  1  0  0  0  0
  6  1  1  0  0  0  0
  7 10  1  0  0  0  0
  8  6  1  0  0  0  0
  8 11  1  0  0  0  0
  9  6  1  0  0  0  0
 10 13  1  0  0  0  0
 11 14  1  0  0  0  0
 12  9  1  0  0  0  0
 14 12  1  0  0  0  0
 14 15  1  0  0  0  0
 15 16  1  0  0  0  0
 15 17  1  0  0  0  0
 18  2  1  0  0  0  0
 18 23  2  0  0  0  0
 19  1  1  0  0  0  0
 19 18  1  0  0  0  0
 20 19  2  0  0  0  0
 21  3  1  0  0  0  0
 21 20  1  0  0  0  0
 22 21  2  0  0  0  0
 22 23  1  0  0  0  0
M  END
>  <CHROM.1>
-78.07291994,-117.05136159,-145.67497833,68.85516346,71.62506925,-76.68574360
-166.40263047,96.80003525,-66.91343217,99.50860394,136.09370378,-7.99252980
-0.96841153,-12.64850131,1.40308974,-0.37515073,2.63933899

>  <Name>
1uui_lig

>  <RI>
0

>  <Rbt.Current_Directory>
/home/itssahil/PROJECTS/Mol_Feturizer/New_Systems/rnas/1uui

>  <Rbt.Executable>
rbdock ($Id: //depot/dev/client3/rdock/2013.1/src/exe/rbdock.cxx#4 $)

>  <Rbt.Library>
libRbt.so (2013.1, Build901 2013/11/27)

>  <Rbt.Parameter_File>
/export/apps/rDock/src/rDock_2013.1_src/data/scripts/dock_solv.prm

>  <Rbt.Receptor>
prm/blind_docking_20.prm

>  <SCORE>
-12.7902

>  <SCORE.INTER>
-15.8484

>  <SCORE.INTER.CONST>
1

>  <SCORE.INTER.POLAR>
-1.56059

>  <SCORE.INTER.ROT>
10

>  <SCORE.INTER.SOLV>
13.9145

>  <SCORE.INTER.VDW>
-20.2685

>  <SCORE.INTER.norm>
-0.689062

>  <SCORE.INTRA>
-1.3711

>  <SCORE.INTRA.DIHEDRAL>
-3.07763

>  <SCORE.INTRA.DIHEDRAL.0>
23.4151

>  <SCORE.INTRA.POLAR>
0

>  <SCORE.INTRA.POLAR.0>
0

>  <SCORE.INTRA.REPUL>
0

>  <SCORE.INTRA.REPUL.0>
0

>  <SCORE.INTRA.SOLV>
0.377335

>  <SCORE.INTRA.SOLV.lig_0>
-17.3568

>  <SCORE.INTRA.VDW>
-0.0209518

>  <SCORE.INTRA.VDW.0>
1.0768

>  <SCORE.INTRA.norm>
-0.059613

>  <SCORE.RESTR>
4.4293

>  <SCORE.RESTR.CAVITY>
4.4293

>  <SCORE.RESTR.norm>
0.192578

>  <SCORE.SYSTEM>
0

>  <SCORE.SYSTEM.CONST>
0

>  <SCORE.SYSTEM.DIHEDRAL>
0

>  <SCORE.SYSTEM.SOLV>
0

>  <SCORE.SYSTEM.norm>
0

>  <SCORE.heavy>
23

>  <SCORE.norm>
-0.556097

>  <RMSD>
15.835

$$$$
1uui_lig
 OpenBabel11021811413D
libRbt.so/2013.1/901 2013/11/27
 23 24  0  0  0  0  0  0  0  0999 V2000
  -20.0015   -7.9151    9.4414 C   0  0  0  0  0  0  0  0  0  0  0  0
  -22.7021   -6.8965    9.7880 O   0  0  0  0  0  0  0  0  0  0  0  0
  -19.0238   -6.2133   14.0900 O   0  0  0  0  0  0  0  0  0  0  0  0
  -22.6698   -5.7539    8.9235 C   0  0  0  0  0  0  0  0  0  0  0  0
  -19.3631   -7.1088   15.1516 C   0  0  0  0  0  0  0  0  0  0  0  0
  -19.6979   -6.9019    8.3781 N   0  0  0  0  0  0  0  0  0  0  0  0
  -23.5494   -4.6527    9.5174 C   0  0  0  0  0  0  0  0  0  0  0  0
  -19.6738   -7.5273    7.0280 C   0  0  0  0  0  0  0  0  0  0  0  0
  -18.3956   -6.2331    8.6380 C   0  0  0  0  0  0  0  0  0  0  0  0
  -23.3736   -3.3556    8.7214 C   0  0  0  0  0  0  0  0  0  0  0  0
  -18.5928   -8.6160    6.9177 C   0  0  0  0  0  0  0  0  0  0  0  0
  -17.2362   -7.2434    8.6733 C   0  0  0  0  0  0  0  0  0  0  0  0
  -24.3317   -3.3344    7.5936 N   0  0  0  0  0  0  0  0  0  0  0  0
  -17.6086   -8.5482    8.0430 N   0  0  0  0  0  0  0  0  0  0  0  0
  -16.8394   -9.6884    8.3408 C   0  0  0  0  0  0  0  0  0  0  0  0
  -15.6968   -9.5855    9.0776 N   0  0  0  0  0  0  0  0  0  0  0  0
  -17.1443  -10.8974    7.7887 N   0  0  0  0  0  0  0  0  0  0  0  0
  -21.7764   -6.7228   10.8646 C   0  0  0  0  0  0  0  0  0  0  0  0
  -20.4446   -7.2050   10.7416 C   0  0  0  0  0  0  0  0  0  0  0  0
  -19.5288   -7.0340   11.8166 C   0  0  0  0  0  0  0  0  0  0  0  0
  -19.9455   -6.3827   13.0093 C   0  0  0  0  0  0  0  0  0  0  0  0
  -21.2757   -5.9012   13.1287 C   0  0  0  0  0  0  0  0  0  0  0  0
  -22.1909   -6.0723   12.0568 C   0  0  0  0  0  0  0  0  0  0  0  0
  2  4  1  0  0  0  0
  3  5  1  0  0  0  0
  4  7  1  0  0  0  0
  6  1  1  0  0  0  0
  7 10  1  0  0  0  0
  8  6  1  0  0  0  0
  8 11  1  0  0  0  0
  9  6  1  0  0  0  0
 10 13  1  0  0  0  0
 11 14  1  0  0  0  0
 12  9  1  0  0  0  0
 14 12  1  0  0  0  0
 14 15  1  0  0  0  0
 15 16  1  0  0  0  0
 15 17  1  0  0  0  0
 18  2  1  0  0  0  0
 18 23  2  0  0  0  0
 19  1  1  0  0  0  0
 19 18  1  0  0  0  0
 20 19  2  0  0  0  0
 21  3  1  0  0  0  0
 21 20  1  0  0  0  0
 22 21  2  0  0  0  0
 22 23  1  0  0  0  0
M  END
>  <CHROM.1>
-82.26720953,171.90477589,-162.75748065,88.22767557,30.98425392,161.59274620
140.57635413,-78.74757403,-91.81811746,79.46103171,-107.01285581,-20.03919252
-6.95064539,9.84831354,0.29540960,0.62585692,-1.66282257

>  <Name>
1uui_lig

>  <RI>
0

>  <Rbt.Current_Directory>
/home/itssahil/PROJECTS/Mol_Feturizer/New_Systems/rnas/1uui

>  <Rbt.Executable>
rbdock ($Id: //depot/dev/client3/rdock/2013.1/src/exe/rbdock.cxx#4 $)

>  <Rbt.Library>
libRbt.so (2013.1, Build901 2013/11/27)

>  <Rbt.Parameter_File>
/export/apps/rDock/src/rDock_2013.1_src/data/scripts/dock_solv.prm

>  <Rbt.Receptor>
prm/blind_docking_40.prm

>  <SCORE>
-24.0736

>  <SCORE.INTER>
-21.9647

>  <SCORE.INTER.CONST>
1

>  <SCORE.INTER.POLAR>
-3.17879

>  <SCORE.INTER.ROT>
10

>  <SCORE.INTER.SOLV>
9.53491

>  <SCORE.INTER.VDW>
-17.4921

>  <SCORE.INTER.norm>
-0.954986

>  <SCORE.INTRA>
-2.14615

>  <SCORE.INTRA.DIHEDRAL>
-2.72955

>  <SCORE.INTRA.DIHEDRAL.0>
23.4151

>  <SCORE.INTRA.POLAR>
0

>  <SCORE.INTRA.POLAR.0>
0

>  <SCORE.INTRA.REPUL>
0

>  <SCORE.INTRA.REPUL.0>
0

>  <SCORE.INTRA.SOLV>
0.224493

>  <SCORE.INTRA.SOLV.lig_0>
-17.3568

>  <SCORE.INTRA.VDW>
-0.893618

>  <SCORE.INTRA.VDW.0>
1.0768

>  <SCORE.INTRA.norm>
-0.0933107

>  <SCORE.RESTR>
0.03722

>  <SCORE.RESTR.CAVITY>
0.03722

>  <SCORE.RESTR.norm>
0.00161826

>  <SCORE.SYSTEM>
0

>  <SCORE.SYSTEM.CONST>
0

>  <SCORE.SYSTEM.DIHEDRAL>
0

>  <SCORE.SYSTEM.SOLV>
0

>  <SCORE.SYSTEM.norm>
0

>  <SCORE.heavy>
23

>  <SCORE.norm>
-1.04668

>  <RMSD>
15.835

$$$$
1uui_lig
 OpenBabel11021811413D
libRbt.so/2013.1/901 2013/11/27
 23 24  0  0  0  0  0  0  0  0999 V2000
   -7.7520   -1.6816  -12.9838 C   0  0  0  0  0  0  0  0  0  0  0  0
   -9.3680    0.7350  -12.9729 O   0  0  0  0  0  0  0  0  0  0  0  0
   -3.9290    1.1740  -14.6248 O   0  0  0  0  0  0  0  0  0  0  0  0
   -9.7734    1.9376  -12.3071 C   0  0  0  0  0  0  0  0  0  0  0  0
   -3.8516    1.9696  -15.8101 C   0  0  0  0  0  0  0  0  0  0  0  0
   -8.7783   -1.4943  -11.9063 N   0  0  0  0  0  0  0  0  0  0  0  0
  -11.2990    1.9604  -12.2013 C   0  0  0  0  0  0  0  0  0  0  0  0
   -8.1376   -1.3391  -10.5720 C   0  0  0  0  0  0  0  0  0  0  0  0
   -9.7263   -2.6391  -11.8709 C   0  0  0  0  0  0  0  0  0  0  0  0
  -11.9215    1.4114  -13.4890 C   0  0  0  0  0  0  0  0  0  0  0  0
   -7.3137   -2.5780  -10.1821 C   0  0  0  0  0  0  0  0  0  0  0  0
   -9.0000   -3.9690  -11.6061 C   0  0  0  0  0  0  0  0  0  0  0  0
  -11.7150   -0.0528  -13.5522 N   0  0  0  0  0  0  0  0  0  0  0  0
   -7.6286   -3.7585  -11.0464 N   0  0  0  0  0  0  0  0  0  0  0  0
   -6.6961   -4.8096  -11.1249 C   0  0  0  0  0  0  0  0  0  0  0  0
   -5.9780   -5.1877  -10.0293 N   0  0  0  0  0  0  0  0  0  0  0  0
   -6.3924   -5.3824  -12.3245 N   0  0  0  0  0  0  0  0  0  0  0  0
   -8.0041    0.8420  -13.3907 C   0  0  0  0  0  0  0  0  0  0  0  0
   -7.1746   -0.3124  -13.4118 C   0  0  0  0  0  0  0  0  0  0  0  0
   -5.8176   -0.2003  -13.8237 C   0  0  0  0  0  0  0  0  0  0  0  0
   -5.2943    1.0628  -14.2126 C   0  0  0  0  0  0  0  0  0  0  0  0
   -6.1255    2.2134  -14.1917 C   0  0  0  0  0  0  0  0  0  0  0  0
   -7.4797    2.1029  -13.7797 C   0  0  0  0  0  0  0  0  0  0  0  0
  2  4  1  0  0  0  0
  3  5  1  0  0  0  0
  4  7  1  0  0  0  0
  6  1  1  0  0  0  0
  7 10  1  0  0  0  0
  8  6  1  0  0  0  0
  8 11  1  0  0  0  0
  9  6  1  0  0  0  0
 10 13  1  0  0  0  0
 11 14  1  0  0  0  0
 12  9  1  0  0  0  0
 14 12  1  0  0  0  0
 14 15  1  0  0  0  0
 15 16  1  0  0  0  0
 15 17  1  0  0  0  0
 18  2  1  0  0  0  0
 18 23  2  0  0  0  0
 19  1  1  0  0  0  0
 19 18  1  0  0  0  0
 20 19  2  0  0  0  0
 21  3  1  0  0  0  0
 21 20  1  0  0  0  0
 22 21  2  0  0  0  0
 22 23  1  0  0  0  0
M  END
>  <CHROM.1>
165.14026498,-39.22978686,-81.48721131,72.19113652,54.05027868,36.85654177
-134.37125485,35.99267042,146.95544839,-33.15071458,134.71048899,-7.81538172
-0.83786481,-12.65667234,-1.51580564,0.23127964,-0.46407199

>  <Name>
1uui_lig

>  <RI>
0

>  <Rbt.Current_Directory>
/home/itssahil/PROJECTS/Mol_Feturizer/New_Systems/rnas/1uui

>  <Rbt.Executable>
rbdock ($Id: //depot/dev/client3/rdock/2013.1/src/exe/rbdock.cxx#4 $)

>  <Rbt.Library>
libRbt.so (2013.1, Build901 2013/11/27)

>  <Rbt.Parameter_File>
/export/apps/rDock/src/rDock_2013.1_src/data/scripts/dock_solv.prm

>  <Rbt.Receptor>
prm/blind_docking_20.prm

>  <SCORE>
-18.62

>  <SCORE.INTER>
-16.3283

>  <SCORE.INTER.CONST>
1

>  <SCORE.INTER.POLAR>
-0.996521

>  <SCORE.INTER.ROT>
10

>  <SCORE.INTER.SOLV>
13.5509

>  <SCORE.INTER.VDW>
-22.3474

>  <SCORE.INTER.norm>
-0.709926

>  <SCORE.INTRA>
-6.86256

>  <SCORE.INTRA.DIHEDRAL>
-11.0814

>  <SCORE.INTRA.DIHEDRAL.0>
23.4151

>  <SCORE.INTRA.POLAR>
-1.36581

>  <SCORE.INTRA.POLAR.0>
0

>  <SCORE.INTRA.REPUL>
0.0607306

>  <SCORE.INTRA.REPUL.0>
0

>  <SCORE.INTRA.SOLV>
1.23793

>  <SCORE.INTRA.SOLV.lig_0>
-17.3568

>  <SCORE.INTRA.VDW>
2.39928

>  <SCORE.INTRA.VDW.0>
1.0768

>  <SCORE.INTRA.norm>
-0.298372

>  <SCORE.RESTR>
4.57084

>  <SCORE.RESTR.CAVITY>
4.57084

>  <SCORE.RESTR.norm>
0.198732

>  <SCORE.SYSTEM>
0

>  <SCORE.SYSTEM.CONST>
0

>  <SCORE.SYSTEM.DIHEDRAL>
0

>  <SCORE.SYSTEM.SOLV>
0

>  <SCORE.SYSTEM.norm>
0

>  <SCORE.heavy>
23

>  <SCORE.norm>
-0.809566

>  <RMSD>
15.842

$$$$
1uui_lig
 OpenBabel11021811413D
libRbt.so/2013.1/901 2013/11/27
 23 24  0  0  0  0  0  0  0  0999 V2000
   -7.7938   -1.9879  -12.1365 C   0  0  0  0  0  0  0  0  0  0  0  0
   -8.9636    0.5997  -11.5141 O   0  0  0  0  0  0  0  0  0  0  0  0
   -4.8289    0.4183  -15.4352 O   0  0  0  0  0  0  0  0  0  0  0  0
  -10.2242    0.2651  -12.1082 C   0  0  0  0  0  0  0  0  0  0  0  0
   -3.9028    1.4816  -15.1988 C   0  0  0  0  0  0  0  0  0  0  0  0
   -8.6451   -2.7992  -13.0673 N   0  0  0  0  0  0  0  0  0  0  0  0
  -10.4949    1.2160  -13.2751 C   0  0  0  0  0  0  0  0  0  0  0  0
   -9.7617   -3.4605  -12.3390 C   0  0  0  0  0  0  0  0  0  0  0  0
   -7.8330   -3.8279  -13.7693 C   0  0  0  0  0  0  0  0  0  0  0  0
  -11.9728    1.6193  -13.2899 C   0  0  0  0  0  0  0  0  0  0  0  0
   -9.2502   -4.4274  -11.2576 C   0  0  0  0  0  0  0  0  0  0  0  0
   -7.1623   -4.7945  -12.7782 C   0  0  0  0  0  0  0  0  0  0  0  0
  -12.2583    2.4917  -12.1289 N   0  0  0  0  0  0  0  0  0  0  0  0
   -7.7962   -4.7401  -11.4242 N   0  0  0  0  0  0  0  0  0  0  0  0
   -7.0780   -5.2346  -10.3196 C   0  0  0  0  0  0  0  0  0  0  0  0
   -5.7947   -4.8366  -10.0876 N   0  0  0  0  0  0  0  0  0  0  0  0
   -7.5990   -6.2212   -9.5356 N   0  0  0  0  0  0  0  0  0  0  0  0
   -7.9287    0.5512  -12.5004 C   0  0  0  0  0  0  0  0  0  0  0  0
   -7.3259   -0.6915  -12.8376 C   0  0  0  0  0  0  0  0  0  0  0  0
   -6.2939   -0.7341  -13.8159 C   0  0  0  0  0  0  0  0  0  0  0  0
   -5.8680    0.4628  -14.4532 C   0  0  0  0  0  0  0  0  0  0  0  0
   -6.4727    1.7020  -14.1152 C   0  0  0  0  0  0  0  0  0  0  0  0
   -7.5019    1.7459  -13.1383 C   0  0  0  0  0  0  0  0  0  0  0  0
  2  4  1  0  0  0  0
  3  5  1  0  0  0  0
  4  7  1  0  0  0  0
  6  1  1  0  0  0  0
  7 10  1  0  0  0  0
  8  6  1  0  0  0  0
  8 11  1  0  0  0  0
  9  6  1  0  0  0  0
 10 13  1  0  0  0  0
 11 14  1  0  0  0  0
 12  9  1  0  0  0  0
 14 12  1  0  0  0  0
 14 15  1  0  0  0  0
 15 16  1  0  0  0  0
 15 17  1  0  0  0  0
 18  2  1  0  0  0  0
 18 23  2  0  0  0  0
 19  1  1  0  0  0  0
 19 18  1  0  0  0  0
 20 19  2  0  0  0  0
 21  3  1  0  0  0  0
 21 20  1  0  0  0  0
 22 21  2  0  0  0  0
 22 23  1  0  0  0  0
M  END
>  <CHROM.1>
-56.59599476,-139.89323320,-142.77187688,69.38897010,-157.19873704,-141.35117320
-63.24234044,-155.53228854,-82.88188019,104.82810684,-135.20573620,-7.97773436
-1.37871739,-12.59489175,1.41719883,-0.34589271,2.72296399

>  <Name>
1uui_lig

>  <RI>
0

>  <Rbt.Current_Directory>
/home/itssahil/PROJECTS/Mol_Feturizer/New_Systems/rnas/1uui

>  <Rbt.Executable>
rbdock ($Id: //depot/dev/client3/rdock/2013.1/src/exe/rbdock.cxx#4 $)

>  <Rbt.Library>
libRbt.so (2013.1, Build901 2013/11/27)

>  <Rbt.Parameter_File>
/export/apps/rDock/src/rDock_2013.1_src/data/scripts/dock_solv.prm

>  <Rbt.Receptor>
prm/blind_docking_20.prm

>  <SCORE>
-3.22543

>  <SCORE.INTER>
-8.05483

>  <SCORE.INTER.CONST>
1

>  <SCORE.INTER.POLAR>
-2.70876

>  <SCORE.INTER.ROT>
10

>  <SCORE.INTER.SOLV>
14.1026

>  <SCORE.INTER.VDW>
-11.3082

>  <SCORE.INTER.norm>
-0.35021

>  <SCORE.INTRA>
-0.718614

>  <SCORE.INTRA.DIHEDRAL>
-3.86142

>  <SCORE.INTRA.DIHEDRAL.0>
23.4151

>  <SCORE.INTRA.POLAR>
0

>  <SCORE.INTRA.POLAR.0>
0

>  <SCORE.INTRA.REPUL>
0

>  <SCORE.INTRA.REPUL.0>
0

>  <SCORE.INTRA.SOLV>
0.233062

>  <SCORE.INTRA.SOLV.lig_0>
-17.3568

>  <SCORE.INTRA.VDW>
1.09557

>  <SCORE.INTRA.VDW.0>
1.0768

>  <SCORE.INTRA.norm>
-0.0312441

>  <SCORE.RESTR>
5.54801

>  <SCORE.RESTR.CAVITY>
5.54801

>  <SCORE.RESTR.norm>
0.241218

>  <SCORE.SYSTEM>
0

>  <SCORE.SYSTEM.CONST>
0

>  <SCORE.SYSTEM.DIHEDRAL>
0

>  <SCORE.SYSTEM.SOLV>
0

>  <SCORE.SYSTEM.norm>
0

>  <SCORE.heavy>
23

>  <SCORE.norm>
-0.140236

>  <RMSD>
15.857

$$$$
1uui_lig
 OpenBabel11021811413D
libRbt.so/2013.1/901 2013/11/27
 23 24  0  0  0  0  0  0  0  0999 V2000
   -7.5875   -1.5099  -13.0299 C   0  0  0  0  0  0  0  0  0  0  0  0
   -9.3130    0.8158  -13.2853 O   0  0  0  0  0  0  0  0  0  0  0  0
   -3.7832    1.4521  -14.5184 O   0  0  0  0  0  0  0  0  0  0  0  0
   -9.7236    1.8260  -12.3552 C   0  0  0  0  0  0  0  0  0  0  0  0
   -3.6437    1.9451  -15.8532 C   0  0  0  0  0  0  0  0  0  0  0  0
   -8.7031   -1.3205  -12.0455 N   0  0  0  0  0  0  0  0  0  0  0  0
  -11.2499    1.9235  -12.3648 C   0  0  0  0  0  0  0  0  0  0  0  0
   -8.1816   -1.1896  -10.6578 C   0  0  0  0  0  0  0  0  0  0  0  0
   -9.6653   -2.4521  -12.1089 C   0  0  0  0  0  0  0  0  0  0  0  0
  -11.8629    0.5272  -12.5123 C   0  0  0  0  0  0  0  0  0  0  0  0
   -7.4119   -2.4445  -10.2120 C   0  0  0  0  0  0  0  0  0  0  0  0
   -8.9829   -3.7951  -11.7976 C   0  0  0  0  0  0  0  0  0  0  0  0
  -13.3160    0.6500  -12.7653 N   0  0  0  0  0  0  0  0  0  0  0  0
   -7.6641   -3.6104  -11.1157 N   0  0  0  0  0  0  0  0  0  0  0  0
   -6.7422   -4.6736  -11.1244 C   0  0  0  0  0  0  0  0  0  0  0  0
   -6.7431   -5.5889  -12.1350 N   0  0  0  0  0  0  0  0  0  0  0  0
   -5.9190   -4.8899  -10.0589 N   0  0  0  0  0  0  0  0  0  0  0  0
   -7.9259    0.9721  -13.5978 C   0  0  0  0  0  0  0  0  0  0  0  0
   -7.0430   -0.1367  -13.4871 C   0  0  0  0  0  0  0  0  0  0  0  0
   -5.6634    0.0247  -13.7947 C   0  0  0  0  0  0  0  0  0  0  0  0
   -5.1710    1.2913  -14.2113 C   0  0  0  0  0  0  0  0  0  0  0  0
   -6.0553    2.3962  -14.3221 C   0  0  0  0  0  0  0  0  0  0  0  0
   -7.4321    2.2367  -14.0144 C   0  0  0  0  0  0  0  0  0  0  0  0
  2  4  1  0  0  0  0
  3  5  1  0  0  0  0
  4  7  1  0  0  0  0
  6  1  1  0  0  0  0
  7 10  1  0  0  0  0
  8  6  1  0  0  0  0
  8 11  1  0  0  0  0
  9  6  1  0  0  0  0
 10 13  1  0  0  0  0
 11 14  1  0  0  0  0
 12  9  1  0  0  0  0
 14 12  1  0  0  0  0
 14 15  1  0  0  0  0
 15 16  1  0  0  0  0
 15 17  1  0  0  0  0
 18  2  1  0  0  0  0
 18 23  2  0  0  0  0
 19  1  1  0  0  0  0
 19 18  1  0  0  0  0
 20 19  2  0  0  0  0
 21  3  1  0  0  0  0
 21 20  1  0  0  0  0
 22 21  2  0  0  0  0
 22 23  1  0  0  0  0
M  END
>  <CHROM.1>
162.63040661,37.78566570,-86.70056214,-169.86173293,65.15924550,-164.11394895
131.06997903,27.20715496,128.43941852,-33.41542410,123.26836313,-7.86359835
-0.72517249,-12.64557096,-1.66863219,0.22615333,-0.45110050

>  <Name>
1uui_lig

>  <RI>
0

>  <Rbt.Current_Directory>
/home/itssahil/PROJECTS/Mol_Feturizer/New_Systems/rnas/1uui

>  <Rbt.Executable>
rbdock ($Id: //depot/dev/client3/rdock/2013.1/src/exe/rbdock.cxx#4 $)

>  <Rbt.Library>
libRbt.so (2013.1, Build901 2013/11/27)

>  <Rbt.Parameter_File>
/export/apps/rDock/src/rDock_2013.1_src/data/scripts/dock_solv.prm

>  <Rbt.Receptor>
prm/blind_docking_20.prm

>  <SCORE>
-17.0837

>  <SCORE.INTER>
-19.1102

>  <SCORE.INTER.CONST>
1

>  <SCORE.INTER.POLAR>
-1.00589

>  <SCORE.INTER.ROT>
10

>  <SCORE.INTER.SOLV>
14.0182

>  <SCORE.INTER.VDW>
-24.3266

>  <SCORE.INTER.norm>
-0.83088

>  <SCORE.INTRA>
-3.46786

>  <SCORE.INTRA.DIHEDRAL>
-7.62471

>  <SCORE.INTRA.DIHEDRAL.0>
23.4151

>  <SCORE.INTRA.POLAR>
-0.570766

>  <SCORE.INTRA.POLAR.0>
0

>  <SCORE.INTRA.REPUL>
0

>  <SCORE.INTRA.REPUL.0>
0

>  <SCORE.INTRA.SOLV>
0.495531

>  <SCORE.INTRA.SOLV.lig_0>
-17.3568

>  <SCORE.INTRA.VDW>
2.03733

>  <SCORE.INTRA.VDW.0>
1.0768

>  <SCORE.INTRA.norm>
-0.150777

>  <SCORE.RESTR>
5.49443

>  <SCORE.RESTR.CAVITY>
5.49443

>  <SCORE.RESTR.norm>
0.238888

>  <SCORE.SYSTEM>
0

>  <SCORE.SYSTEM.CONST>
0

>  <SCORE.SYSTEM.DIHEDRAL>
0

>  <SCORE.SYSTEM.SOLV>
0

>  <SCORE.SYSTEM.norm>
0

>  <SCORE.heavy>
23

>  <SCORE.norm>
-0.742769

>  <RMSD>
15.857

$$$$
1uui_lig
 OpenBabel11021811413D
libRbt.so/2013.1/901 2013/11/27
 23 24  0  0  0  0  0  0  0  0999 V2000
   -8.0159   -0.7813  -12.2415 C   0  0  0  0  0  0  0  0  0  0  0  0
   -9.0903    1.9129  -12.0462 O   0  0  0  0  0  0  0  0  0  0  0  0
   -4.7226    1.0374  -15.6043 O   0  0  0  0  0  0  0  0  0  0  0  0
  -10.2863    1.3281  -12.5769 C   0  0  0  0  0  0  0  0  0  0  0  0
   -3.6845    1.9792  -15.3229 C   0  0  0  0  0  0  0  0  0  0  0  0
   -8.8417   -1.6751  -13.1183 N   0  0  0  0  0  0  0  0  0  0  0  0
  -11.4901    2.1582  -12.1285 C   0  0  0  0  0  0  0  0  0  0  0  0
   -9.9539   -2.3025  -12.3541 C   0  0  0  0  0  0  0  0  0  0  0  0
   -8.0030   -2.7367  -13.7347 C   0  0  0  0  0  0  0  0  0  0  0  0
  -12.7785    1.5701  -12.7126 C   0  0  0  0  0  0  0  0  0  0  0  0
   -9.4366   -3.1773  -11.1996 C   0  0  0  0  0  0  0  0  0  0  0  0
   -7.3256   -3.6148  -12.6688 C   0  0  0  0  0  0  0  0  0  0  0  0
  -12.9571    2.0529  -14.1003 N   0  0  0  0  0  0  0  0  0  0  0  0
   -7.9754   -3.4734  -11.3286 N   0  0  0  0  0  0  0  0  0  0  0  0
   -7.2604   -3.8715  -10.1836 C   0  0  0  0  0  0  0  0  0  0  0  0
   -6.8190   -2.9492   -9.2817 N   0  0  0  0  0  0  0  0  0  0  0  0
   -6.8771   -5.1697  -10.0188 N   0  0  0  0  0  0  0  0  0  0  0  0
   -7.9969    1.6900  -12.9412 C   0  0  0  0  0  0  0  0  0  0  0  0
   -7.4376    0.3893  -13.0700 C   0  0  0  0  0  0  0  0  0  0  0  0
   -6.3474    0.1734  -13.9580 C   0  0  0  0  0  0  0  0  0  0  0  0
   -5.8201    1.2559  -14.7133 C   0  0  0  0  0  0  0  0  0  0  0  0
   -6.3815    2.5533  -14.5835 C   0  0  0  0  0  0  0  0  0  0  0  0
   -7.4689    2.7702  -13.6967 C   0  0  0  0  0  0  0  0  0  0  0  0
  2  4  1  0  0  0  0
  3  5  1  0  0  0  0
  4  7  1  0  0  0  0
  6  1  1  0  0  0  0
  7 10  1  0  0  0  0
  8  6  1  0  0  0  0
  8 11  1  0  0  0  0
  9  6  1  0  0  0  0
 10 13  1  0  0  0  0
 11 14  1  0  0  0  0
 12  9  1  0  0  0  0
 14 12  1  0  0  0  0
 14 15  1  0  0  0  0
 15 16  1  0  0  0  0
 15 17  1  0  0  0  0
 18  2  1  0  0  0  0
 18 23  2  0  0  0  0
 19  1  1  0  0  0  0
 19 18  1  0  0  0  0
 20 19  2  0  0  0  0
 21  3  1  0  0  0  0
 21 20  1  0  0  0  0
 22 21  2  0  0  0  0
 22 23  1  0  0  0  0
M  END
>  <CHROM.1>
-148.57455183,178.65177596,-148.86821818,-82.41345935,-60.20195402,-80.74744090
-178.91187518,-18.85881300,-72.11759808,104.98317813,-127.72980733,-8.16647023
-0.41822739,-12.74428077,1.42442222,-0.24714220,2.62357316

>  <Name>
1uui_lig

>  <RI>
0

>  <Rbt.Current_Directory>
/home/itssahil/PROJECTS/Mol_Feturizer/New_Systems/rnas/1uui

>  <Rbt.Executable>
rbdock ($Id: //depot/dev/client3/rdock/2013.1/src/exe/rbdock.cxx#4 $)

>  <Rbt.Library>
libRbt.so (2013.1, Build901 2013/11/27)

>  <Rbt.Parameter_File>
/export/apps/rDock/src/rDock_2013.1_src/data/scripts/dock_solv.prm

>  <Rbt.Receptor>
prm/blind_docking_20.prm

>  <SCORE>
-8.22958

>  <SCORE.INTER>
-8.83936

>  <SCORE.INTER.CONST>
1

>  <SCORE.INTER.POLAR>
0

>  <SCORE.INTER.ROT>
10

>  <SCORE.INTER.SOLV>
14.4053

>  <SCORE.INTER.VDW>
-20.9613

>  <SCORE.INTER.norm>
-0.38432

>  <SCORE.INTRA>
-4.04989

>  <SCORE.INTRA.DIHEDRAL>
-4.44758

>  <SCORE.INTRA.DIHEDRAL.0>
23.4151

>  <SCORE.INTRA.POLAR>
0

>  <SCORE.INTRA.POLAR.0>
0

>  <SCORE.INTRA.REPUL>
0

>  <SCORE.INTRA.REPUL.0>
0

>  <SCORE.INTRA.SOLV>
0.13886

>  <SCORE.INTRA.SOLV.lig_0>
-17.3568

>  <SCORE.INTRA.VDW>
-1.89553

>  <SCORE.INTRA.VDW.0>
1.0768

>  <SCORE.INTRA.norm>
-0.176082

>  <SCORE.RESTR>
4.65967

>  <SCORE.RESTR.CAVITY>
4.65967

>  <SCORE.RESTR.norm>
0.202595

>  <SCORE.SYSTEM>
0

>  <SCORE.SYSTEM.CONST>
0

>  <SCORE.SYSTEM.DIHEDRAL>
0

>  <SCORE.SYSTEM.SOLV>
0

>  <SCORE.SYSTEM.norm>
0

>  <SCORE.heavy>
23

>  <SCORE.norm>
-0.357808

>  <RMSD>
15.860

$$$$
1uui_lig
 OpenBabel11021811413D
libRbt.so/2013.1/901 2013/11/27
 23 24  0  0  0  0  0  0  0  0999 V2000
   -7.9623   -1.7336  -13.1199 C   0  0  0  0  0  0  0  0  0  0  0  0
   -9.5200    0.7198  -13.1948 O   0  0  0  0  0  0  0  0  0  0  0  0
   -4.0007    1.0241  -14.5907 O   0  0  0  0  0  0  0  0  0  0  0  0
  -10.3314    0.7659  -14.3753 C   0  0  0  0  0  0  0  0  0  0  0  0
   -3.8525    0.8504  -16.0020 C   0  0  0  0  0  0  0  0  0  0  0  0
   -8.9962   -1.5227  -12.0541 N   0  0  0  0  0  0  0  0  0  0  0  0
  -11.6470    1.4749  -14.0502 C   0  0  0  0  0  0  0  0  0  0  0  0
   -8.3670   -1.1464  -10.7590 C   0  0  0  0  0  0  0  0  0  0  0  0
   -9.8231   -2.7441  -11.8672 C   0  0  0  0  0  0  0  0  0  0  0  0
  -11.8884    1.4629  -12.5374 C   0  0  0  0  0  0  0  0  0  0  0  0
   -7.4196   -2.2415  -10.2403 C   0  0  0  0  0  0  0  0  0  0  0  0
   -8.9644   -3.9537  -11.4603 C   0  0  0  0  0  0  0  0  0  0  0  0
  -10.8334    2.2517  -11.8626 N   0  0  0  0  0  0  0  0  0  0  0  0
   -7.6183   -3.5421  -10.9535 N   0  0  0  0  0  0  0  0  0  0  0  0
   -6.5846   -4.4966  -10.9239 C   0  0  0  0  0  0  0  0  0  0  0  0
   -6.1488   -5.0881  -12.0725 N   0  0  0  0  0  0  0  0  0  0  0  0
   -6.0892   -4.9496   -9.7369 N   0  0  0  0  0  0  0  0  0  0  0  0
   -8.1359    0.7930  -13.5484 C   0  0  0  0  0  0  0  0  0  0  0  0
   -7.3335   -0.3804  -13.5258 C   0  0  0  0  0  0  0  0  0  0  0  0
   -5.9564   -0.3019  -13.8739 C   0  0  0  0  0  0  0  0  0  0  0  0
   -5.3860    0.9467  -14.2428 C   0  0  0  0  0  0  0  0  0  0  0  0
   -6.1901    2.1164  -14.2656 C   0  0  0  0  0  0  0  0  0  0  0  0
   -7.5643    2.0395  -13.9174 C   0  0  0  0  0  0  0  0  0  0  0  0
  2  4  1  0  0  0  0
  3  5  1  0  0  0  0
  4  7  1  0  0  0  0
  6  1  1  0  0  0  0
  7 10  1  0  0  0  0
  8  6  1  0  0  0  0
  8 11  1  0  0  0  0
  9  6  1  0  0  0  0
 10 13  1  0  0  0  0
 11 14  1  0  0  0  0
 12  9  1  0  0  0  0
 14 12  1  0  0  0  0
 14 15  1  0  0  0  0
 15 16  1  0  0  0  0
 15 17  1  0  0  0  0
 18  2  1  0  0  0  0
 18 23  2  0  0  0  0
 19  1  1  0  0  0  0
 19 18  1  0  0  0  0
 20 19  2  0  0  0  0
 21  3  1  0  0  0  0
 21 20  1  0  0  0  0
 22 21  2  0  0  0  0
 22 23  1  0  0  0  0
M  END
>  <CHROM.1>
-147.54154750,-19.71471464,-70.69198360,64.36779789,-163.56804537,-130.56016496
-168.40827502,165.23681771,-103.34636866,-35.34263337,91.71550367,-7.86695183
-0.79764150,-12.71207204,1.32969514,-0.28741829,2.59814981

>  <Name>
1uui_lig

>  <RI>
0

>  <Rbt.Current_Directory>
/home/itssahil/PROJECTS/Mol_Feturizer/New_Systems/rnas/1uui

>  <Rbt.Executable>
rbdock ($Id: //depot/dev/client3/rdock/2013.1/src/exe/rbdock.cxx#4 $)

>  <Rbt.Library>
libRbt.so (2013.1, Build901 2013/11/27)

>  <Rbt.Parameter_File>
/export/apps/rDock/src/rDock_2013.1_src/data/scripts/dock_solv.prm

>  <Rbt.Receptor>
prm/blind_docking_20.prm

>  <SCORE>
-15.6443

>  <SCORE.INTER>
-16.2229

>  <SCORE.INTER.CONST>
1

>  <SCORE.INTER.POLAR>
-1.38164

>  <SCORE.INTER.ROT>
10

>  <SCORE.INTER.SOLV>
15.19

>  <SCORE.INTER.VDW>
-21.5398

>  <SCORE.INTER.norm>
-0.705344

>  <SCORE.INTRA>
-4.07831

>  <SCORE.INTRA.DIHEDRAL>
-0.460316

>  <SCORE.INTRA.DIHEDRAL.0>
23.4151

>  <SCORE.INTRA.POLAR>
-1.32344

>  <SCORE.INTRA.POLAR.0>
0

>  <SCORE.INTRA.REPUL>
0

>  <SCORE.INTRA.REPUL.0>
0

>  <SCORE.INTRA.SOLV>
1.17473

>  <SCORE.INTRA.SOLV.lig_0>
-17.3568

>  <SCORE.INTRA.VDW>
0.0641961

>  <SCORE.INTRA.VDW.0>
1.0768

>  <SCORE.INTRA.norm>
-0.177318

>  <SCORE.RESTR>
4.65694

>  <SCORE.RESTR.CAVITY>
4.65694

>  <SCORE.RESTR.norm>
0.202476

>  <SCORE.SYSTEM>
0

>  <SCORE.SYSTEM.CONST>
0

>  <SCORE.SYSTEM.DIHEDRAL>
0

>  <SCORE.SYSTEM.SOLV>
0

>  <SCORE.SYSTEM.norm>
0

>  <SCORE.heavy>
23

>  <SCORE.norm>
-0.680186

>  <RMSD>
15.872

$$$$
1uui_lig
 OpenBabel11021811413D
libRbt.so/2013.1/901 2013/11/27
 23 24  0  0  0  0  0  0  0  0999 V2000
   -7.6928   -1.8717  -12.8023 C   0  0  0  0  0  0  0  0  0  0  0  0
   -9.6484    0.2761  -12.9192 O   0  0  0  0  0  0  0  0  0  0  0  0
   -4.6696    1.0577  -15.5845 O   0  0  0  0  0  0  0  0  0  0  0  0
  -10.4762    1.4349  -13.0804 C   0  0  0  0  0  0  0  0  0  0  0  0
   -4.0527    2.2521  -15.0978 C   0  0  0  0  0  0  0  0  0  0  0  0
   -8.6877   -1.6339  -11.7055 N   0  0  0  0  0  0  0  0  0  0  0  0
  -11.8611    1.1446  -12.4998 C   0  0  0  0  0  0  0  0  0  0  0  0
   -8.0083   -1.3972  -10.4028 C   0  0  0  0  0  0  0  0  0  0  0  0
   -9.6208   -2.7842  -11.5761 C   0  0  0  0  0  0  0  0  0  0  0  0
  -12.7446    2.3918  -12.6041 C   0  0  0  0  0  0  0  0  0  0  0  0
   -7.1584   -2.6039   -9.9697 C   0  0  0  0  0  0  0  0  0  0  0  0
   -8.8713   -4.0897  -11.2599 C   0  0  0  0  0  0  0  0  0  0  0  0
  -13.1586    2.5875  -14.0115 N   0  0  0  0  0  0  0  0  0  0  0  0
   -7.4860   -3.8344  -10.7560 N   0  0  0  0  0  0  0  0  0  0  0  0
   -6.5442   -4.8790  -10.8043 C   0  0  0  0  0  0  0  0  0  0  0  0
   -5.7866   -5.1857   -9.7131 N   0  0  0  0  0  0  0  0  0  0  0  0
   -6.2727   -5.5176  -11.9783 N   0  0  0  0  0  0  0  0  0  0  0  0
   -8.4000    0.4684  -13.5904 C   0  0  0  0  0  0  0  0  0  0  0  0
   -7.4121   -0.5536  -13.5605 C   0  0  0  0  0  0  0  0  0  0  0  0
   -6.1703   -0.3560  -14.2257 C   0  0  0  0  0  0  0  0  0  0  0  0
   -5.9196    0.8600  -14.9177 C   0  0  0  0  0  0  0  0  0  0  0  0
   -6.9085    1.8781  -14.9468 C   0  0  0  0  0  0  0  0  0  0  0  0
   -8.1478    1.6825  -14.2824 C   0  0  0  0  0  0  0  0  0  0  0  0
  2  4  1  0  0  0  0
  3  5  1  0  0  0  0
  4  7  1  0  0  0  0
  6  1  1  0  0  0  0
  7 10  1  0  0  0  0
  8  6  1  0  0  0  0
  8 11  1  0  0  0  0
  9  6  1  0  0  0  0
 10 13  1  0  0  0  0
 11 14  1  0  0  0  0
 12  9  1  0  0  0  0
 14 12  1  0  0  0  0
 14 15  1  0  0  0  0
 15 16  1  0  0  0  0
 15 17  1  0  0  0  0
 18  2  1  0  0  0  0
 18 23  2  0  0  0  0
 19  1  1  0  0  0  0
 19 18  1  0  0  0  0
 20 19  2  0  0  0  0
 21  3  1  0  0  0  0
 21 20  1  0  0  0  0
 22 21  2  0  0  0  0
 22 23  1  0  0  0  0
M  END
>  <CHROM.1>
173.36698025,177.45934468,-95.64632328,73.81789772,72.90715094,36.72430679
37.04129054,156.07847658,179.70116861,-26.31809272,-124.14385373,-8.10378641
-0.83492153,-12.68943048,-1.13026349,0.28330353,-0.58760849

>  <Name>
1uui_lig

>  <RI>
0

>  <Rbt.Current_Directory>
/home/itssahil/PROJECTS/Mol_Feturizer/New_Systems/rnas/1uui

>  <Rbt.Executable>
rbdock ($Id: //depot/dev/client3/rdock/2013.1/src/exe/rbdock.cxx#4 $)

>  <Rbt.Library>
libRbt.so (2013.1, Build901 2013/11/27)

>  <Rbt.Parameter_File>
/export/apps/rDock/src/rDock_2013.1_src/data/scripts/dock_solv.prm

>  <Rbt.Receptor>
prm/blind_docking_20.prm

>  <SCORE>
-9.97349

>  <SCORE.INTER>
-12.5907

>  <SCORE.INTER.CONST>
1

>  <SCORE.INTER.POLAR>
-0.964515

>  <SCORE.INTER.ROT>
10

>  <SCORE.INTER.SOLV>
13.5897

>  <SCORE.INTER.VDW>
-19.9753

>  <SCORE.INTER.norm>
-0.547423

>  <SCORE.INTRA>
-3.78341

>  <SCORE.INTRA.DIHEDRAL>
-12.1562

>  <SCORE.INTRA.DIHEDRAL.0>
23.4151

>  <SCORE.INTRA.POLAR>
-0.601033

>  <SCORE.INTRA.POLAR.0>
0

>  <SCORE.INTRA.REPUL>
0

>  <SCORE.INTRA.REPUL.0>
0

>  <SCORE.INTRA.SOLV>
0.431941

>  <SCORE.INTRA.SOLV.lig_0>
-17.3568

>  <SCORE.INTRA.VDW>
4.12225

>  <SCORE.INTRA.VDW.0>
1.0768

>  <SCORE.INTRA.norm>
-0.164496

>  <SCORE.RESTR>
6.40066

>  <SCORE.RESTR.CAVITY>
6.40066

>  <SCORE.RESTR.norm>
0.27829

>  <SCORE.SYSTEM>
0

>  <SCORE.SYSTEM.CONST>
0

>  <SCORE.SYSTEM.DIHEDRAL>
0

>  <SCORE.SYSTEM.SOLV>
0

>  <SCORE.SYSTEM.norm>
0

>  <SCORE.heavy>
23

>  <SCORE.norm>
-0.43363

>  <RMSD>
15.897

$$$$
1uui_lig
 OpenBabel11021811413D
libRbt.so/2013.1/901 2013/11/27
 23 24  0  0  0  0  0  0  0  0999 V2000
   -7.7890   -0.3909  -13.5086 C   0  0  0  0  0  0  0  0  0  0  0  0
   -5.2477   -1.4120  -14.4837 O   0  0  0  0  0  0  0  0  0  0  0  0
   -5.8209    4.2348  -13.9461 O   0  0  0  0  0  0  0  0  0  0  0  0
   -6.1299   -1.8978  -15.5034 C   0  0  0  0  0  0  0  0  0  0  0  0
   -5.3410    4.8760  -15.1304 C   0  0  0  0  0  0  0  0  0  0  0  0
   -8.8823    0.3833  -12.8342 N   0  0  0  0  0  0  0  0  0  0  0  0
   -6.4634   -3.3631  -15.2192 C   0  0  0  0  0  0  0  0  0  0  0  0
   -8.4590    0.8524  -11.4868 C   0  0  0  0  0  0  0  0  0  0  0  0
  -10.1151   -0.4382  -12.7085 C   0  0  0  0  0  0  0  0  0  0  0  0
   -7.2680   -3.4747  -13.9202 C   0  0  0  0  0  0  0  0  0  0  0  0
   -8.1111   -0.3193  -10.5529 C   0  0  0  0  0  0  0  0  0  0  0  0
   -9.8647   -1.7152  -11.8882 C   0  0  0  0  0  0  0  0  0  0  0  0
   -7.0996   -4.8299  -13.3498 N   0  0  0  0  0  0  0  0  0  0  0  0
   -8.6067   -1.6281  -11.0831 N   0  0  0  0  0  0  0  0  0  0  0  0
   -8.0228   -2.8171  -10.6080 C   0  0  0  0  0  0  0  0  0  0  0  0
   -8.5082   -4.0329  -10.9890 N   0  0  0  0  0  0  0  0  0  0  0  0
   -7.0487   -2.7815   -9.6543 N   0  0  0  0  0  0  0  0  0  0  0  0
   -5.3925    0.0043  -14.3443 C   0  0  0  0  0  0  0  0  0  0  0  0
   -6.6172    0.5504  -13.8719 C   0  0  0  0  0  0  0  0  0  0  0  0
   -6.7581    1.9598  -13.7392 C   0  0  0  0  0  0  0  0  0  0  0  0
   -5.6768    2.8178  -14.0784 C   0  0  0  0  0  0  0  0  0  0  0  0
   -4.4548    2.2694  -14.5487 C   0  0  0  0  0  0  0  0  0  0  0  0
   -4.3134    0.8630  -14.6825 C   0  0  0  0  0  0  0  0  0  0  0  0
  2  4  1  0  0  0  0
  3  5  1  0  0  0  0
  4  7  1  0  0  0  0
  6  1  1  0  0  0  0
  7 10  1  0  0  0  0
  8  6  1  0  0  0  0
  8 11  1  0  0  0  0
  9  6  1  0  0  0  0
 10 13  1  0  0  0  0
 11 14  1  0  0  0  0
 12  9  1  0  0  0  0
 14 12  1  0  0  0  0
 14 15  1  0  0  0  0
 15 16  1  0  0  0  0
 15 17  1  0  0  0  0
 18  2  1  0  0  0  0
 18 23  2  0  0  0  0
 19  1  1  0  0  0  0
 19 18  1  0  0  0  0
 20 19  2  0  0  0  0
 21  3  1  0  0  0  0
 21 20  1  0  0  0  0
 22 21  2  0  0  0  0
 22 23  1  0  0  0  0
M  END
>  <CHROM.1>
-153.76576420,65.59569724,-68.59930968,-156.12066096,-61.69035138,175.16516972
-172.20348592,-173.03295812,65.69864531,170.96948181,-133.00508526,-7.06937192
-0.52735022,-13.10023702,0.99316444,0.85086309,0.04168439

>  <Name>
1uui_lig

>  <RI>
0

>  <Rbt.Current_Directory>
/home/itssahil/PROJECTS/Mol_Feturizer/New_Systems/rnas/1uui

>  <Rbt.Executable>
rbdock ($Id: //depot/dev/client3/rdock/2013.1/src/exe/rbdock.cxx#4 $)

>  <Rbt.Library>
libRbt.so (2013.1, Build901 2013/11/27)

>  <Rbt.Parameter_File>
/export/apps/rDock/src/rDock_2013.1_src/data/scripts/dock_solv.prm

>  <Rbt.Receptor>
prm/blind_docking_20.prm

>  <SCORE>
-16.5766

>  <SCORE.INTER>
-19.9619

>  <SCORE.INTER.CONST>
1

>  <SCORE.INTER.POLAR>
-0.663325

>  <SCORE.INTER.ROT>
10

>  <SCORE.INTER.SOLV>
13.3985

>  <SCORE.INTER.VDW>
-25.8297

>  <SCORE.INTER.norm>
-0.86791

>  <SCORE.INTRA>
-3.63394

>  <SCORE.INTRA.DIHEDRAL>
-7.39495

>  <SCORE.INTRA.DIHEDRAL.0>
23.4151

>  <SCORE.INTRA.POLAR>
-0.8974

>  <SCORE.INTRA.POLAR.0>
0

>  <SCORE.INTRA.REPUL>
0

>  <SCORE.INTRA.REPUL.0>
0

>  <SCORE.INTRA.SOLV>
1.68114

>  <SCORE.INTRA.SOLV.lig_0>
-17.3568

>  <SCORE.INTRA.VDW>
2.27412

>  <SCORE.INTRA.VDW.0>
1.0768

>  <SCORE.INTRA.norm>
-0.157998

>  <SCORE.RESTR>
7.01929

>  <SCORE.RESTR.CAVITY>
7.01929

>  <SCORE.RESTR.norm>
0.305186

>  <SCORE.SYSTEM>
0

>  <SCORE.SYSTEM.CONST>
0

>  <SCORE.SYSTEM.DIHEDRAL>
0

>  <SCORE.SYSTEM.SOLV>
0

>  <SCORE.SYSTEM.norm>
0

>  <SCORE.heavy>
23

>  <SCORE.norm>
-0.720721

>  <RMSD>
15.903

$$$$
1uui_lig
 OpenBabel11021811413D
libRbt.so/2013.1/901 2013/11/27
 23 24  0  0  0  0  0  0  0  0999 V2000
   -7.4910   -1.0290  -12.3841 C   0  0  0  0  0  0  0  0  0  0  0  0
   -9.4953    1.0094  -12.9125 O   0  0  0  0  0  0  0  0  0  0  0  0
   -4.1118    2.1079  -14.4341 O   0  0  0  0  0  0  0  0  0  0  0  0
   -9.9813    2.0510  -12.0564 C   0  0  0  0  0  0  0  0  0  0  0  0
   -3.9698    1.9430  -15.8471 C   0  0  0  0  0  0  0  0  0  0  0  0
   -8.6269   -1.6826  -13.1135 N   0  0  0  0  0  0  0  0  0  0  0  0
  -11.5084    2.0880  -12.1316 C   0  0  0  0  0  0  0  0  0  0  0  0
   -9.6279   -2.2406  -12.1640 C   0  0  0  0  0  0  0  0  0  0  0  0
   -8.1329   -2.7646  -14.0056 C   0  0  0  0  0  0  0  0  0  0  0  0
  -11.9815    1.4999  -13.4648 C   0  0  0  0  0  0  0  0  0  0  0  0
   -9.0165   -3.3165  -11.2504 C   0  0  0  0  0  0  0  0  0  0  0  0
   -7.3880   -3.8547  -13.2164 C   0  0  0  0  0  0  0  0  0  0  0  0
  -11.8610    0.0253  -13.4246 N   0  0  0  0  0  0  0  0  0  0  0  0
   -7.6898   -3.7937  -11.7523 N   0  0  0  0  0  0  0  0  0  0  0  0
   -6.8125   -4.4275  -10.8528 C   0  0  0  0  0  0  0  0  0  0  0  0
   -5.8675   -5.3025  -11.3002 N   0  0  0  0  0  0  0  0  0  0  0  0
   -6.9740   -4.2853   -9.5062 N   0  0  0  0  0  0  0  0  0  0  0  0
   -8.1446    1.2812  -13.2969 C   0  0  0  0  0  0  0  0  0  0  0  0
   -7.1295    0.3149  -13.0582 C   0  0  0  0  0  0  0  0  0  0  0  0
   -5.7867    0.5915  -13.4381 C   0  0  0  0  0  0  0  0  0  0  0  0
   -5.4628    1.8307  -14.0544 C   0  0  0  0  0  0  0  0  0  0  0  0
   -6.4789    2.7931  -14.2926 C   0  0  0  0  0  0  0  0  0  0  0  0
   -7.8191    2.5186  -13.9128 C   0  0  0  0  0  0  0  0  0  0  0  0
  2  4  1  0  0  0  0
  3  5  1  0  0  0  0
  4  7  1  0  0  0  0
  6  1  1  0  0  0  0
  7 10  1  0  0  0  0
  8  6  1  0  0  0  0
  8 11  1  0  0  0  0
  9  6  1  0  0  0  0
 10 13  1  0  0  0  0
 11 14  1  0  0  0  0
 12  9  1  0  0  0  0
 14 12  1  0  0  0  0
 14 15  1  0  0  0  0
 15 16  1  0  0  0  0
 15 17  1  0  0  0  0
 18  2  1  0  0  0  0
 18 23  2  0  0  0  0
 19  1  1  0  0  0  0
 19 18  1  0  0  0  0
 20 19  2  0  0  0  0
 21  3  1  0  0  0  0
 21 20  1  0  0  0  0
 22 21  2  0  0  0  0
 22 23  1  0  0  0  0
M  END
>  <CHROM.1>
156.31200841,-24.86944558,-136.66793764,75.57161739,70.56021468,155.04545827
148.20389001,127.09294455,124.81492052,52.40884121,103.01608285,-7.91272931
-0.61185150,-12.84396806,-1.54426963,0.19729892,-0.39645988

>  <Name>
1uui_lig

>  <RI>
0

>  <Rbt.Current_Directory>
/home/itssahil/PROJECTS/Mol_Feturizer/New_Systems/rnas/1uui

>  <Rbt.Executable>
rbdock ($Id: //depot/dev/client3/rdock/2013.1/src/exe/rbdock.cxx#4 $)

>  <Rbt.Library>
libRbt.so (2013.1, Build901 2013/11/27)

>  <Rbt.Parameter_File>
/export/apps/rDock/src/rDock_2013.1_src/data/scripts/dock_solv.prm

>  <Rbt.Receptor>
prm/blind_docking_20.prm

>  <SCORE>
-9.14165

>  <SCORE.INTER>
-11.5271

>  <SCORE.INTER.CONST>
1

>  <SCORE.INTER.POLAR>
-1.01202

>  <SCORE.INTER.ROT>
10

>  <SCORE.INTER.SOLV>
14.8326

>  <SCORE.INTER.VDW>
-19.5222

>  <SCORE.INTER.norm>
-0.501178

>  <SCORE.INTRA>
-3.07213

>  <SCORE.INTRA.DIHEDRAL>
-1.45653

>  <SCORE.INTRA.DIHEDRAL.0>
23.4151

>  <SCORE.INTRA.POLAR>
-0.854352

>  <SCORE.INTRA.POLAR.0>
0

>  <SCORE.INTRA.REPUL>
0

>  <SCORE.INTRA.REPUL.0>
0

>  <SCORE.INTRA.SOLV>
1.07272

>  <SCORE.INTRA.SOLV.lig_0>
-17.3568

>  <SCORE.INTRA.VDW>
0.0245735

>  <SCORE.INTRA.VDW.0>
1.0768

>  <SCORE.INTRA.norm>
-0.133571

>  <SCORE.RESTR>
5.45759

>  <SCORE.RESTR.CAVITY>
5.45759

>  <SCORE.RESTR.norm>
0.237286

>  <SCORE.SYSTEM>
0

>  <SCORE.SYSTEM.CONST>
0

>  <SCORE.SYSTEM.DIHEDRAL>
0

>  <SCORE.SYSTEM.SOLV>
0

>  <SCORE.SYSTEM.norm>
0

>  <SCORE.heavy>
23

>  <SCORE.norm>
-0.397463

>  <RMSD>
16.009

$$$$
1uui_lig
 OpenBabel11021811413D
libRbt.so/2013.1/901 2013/11/27
 23 24  0  0  0  0  0  0  0  0999 V2000
   -8.1449    0.1234  -13.6249 C   0  0  0  0  0  0  0  0  0  0  0  0
   -6.3488   -0.2699  -15.8767 O   0  0  0  0  0  0  0  0  0  0  0  0
   -6.1192    4.7178  -13.1246 O   0  0  0  0  0  0  0  0  0  0  0  0
   -5.3383   -1.1561  -15.3792 C   0  0  0  0  0  0  0  0  0  0  0  0
   -6.5393    5.7646  -14.0030 C   0  0  0  0  0  0  0  0  0  0  0  0
   -9.2189    0.7241  -12.7675 N   0  0  0  0  0  0  0  0  0  0  0  0
   -3.9668   -0.6578  -15.8375 C   0  0  0  0  0  0  0  0  0  0  0  0
   -8.6876    1.1177  -11.4342 C   0  0  0  0  0  0  0  0  0  0  0  0
  -10.3498   -0.2247  -12.5902 C   0  0  0  0  0  0  0  0  0  0  0  0
   -3.0838   -1.8454  -16.2337 C   0  0  0  0  0  0  0  0  0  0  0  0
   -8.1303   -0.0879  -10.6585 C   0  0  0  0  0  0  0  0  0  0  0  0
   -9.8923   -1.5348  -11.9266 C   0  0  0  0  0  0  0  0  0  0  0  0
   -2.6664   -2.5780  -15.0173 N   0  0  0  0  0  0  0  0  0  0  0  0
   -8.5632   -1.3903  -11.2551 N   0  0  0  0  0  0  0  0  0  0  0  0
   -7.8235   -2.5506  -10.9602 C   0  0  0  0  0  0  0  0  0  0  0  0
   -7.2345   -2.7108   -9.7410 N   0  0  0  0  0  0  0  0  0  0  0  0
   -7.5663   -3.4768  -11.9275 N   0  0  0  0  0  0  0  0  0  0  0  0
   -6.2903    0.9793  -15.1823 C   0  0  0  0  0  0  0  0  0  0  0  0
   -7.1498    1.2180  -14.0752 C   0  0  0  0  0  0  0  0  0  0  0  0
   -7.0912    2.4636  -13.3905 C   0  0  0  0  0  0  0  0  0  0  0  0
   -6.1755    3.4652  -13.8131 C   0  0  0  0  0  0  0  0  0  0  0  0
   -5.3177    3.2234  -14.9181 C   0  0  0  0  0  0  0  0  0  0  0  0
   -5.3761    1.9811  -15.6029 C   0  0  0  0  0  0  0  0  0  0  0  0
  2  4  1  0  0  0  0
  3  5  1  0  0  0  0
  4  7  1  0  0  0  0
  6  1  1  0  0  0  0
  7 10  1  0  0  0  0
  8  6  1  0  0  0  0
  8 11  1  0  0  0  0
  9  6  1  0  0  0  0
 10 13  1  0  0  0  0
 11 14  1  0  0  0  0
 12  9  1  0  0  0  0
 14 12  1  0  0  0  0
 14 15  1  0  0  0  0
 15 16  1  0  0  0  0
 15 17  1  0  0  0  0
 18  2  1  0  0  0  0
 18 23  2  0  0  0  0
 19  1  1  0  0  0  0
 19 18  1  0  0  0  0
 20 19  2  0  0  0  0
 21  3  1  0  0  0  0
 21 20  1  0  0  0  0
 22 21  2  0  0  0  0
 22 23  1  0  0  0  0
M  END
>  <CHROM.1>
-71.09598567,-140.38916800,-71.29409357,-72.33971628,67.13005161,33.80920834
155.87830862,36.86024912,-96.24235520,-161.87835055,-114.81314340,-6.80596466
0.24743455,-13.42256523,2.27709207,-0.71101790,2.93135864

>  <Name>
1uui_lig

>  <RI>
0

>  <Rbt.Current_Directory>
/home/itssahil/PROJECTS/Mol_Feturizer/New_Systems/rnas/1uui

>  <Rbt.Executable>
rbdock ($Id: //depot/dev/client3/rdock/2013.1/src/exe/rbdock.cxx#4 $)

>  <Rbt.Library>
libRbt.so (2013.1, Build901 2013/11/27)

>  <Rbt.Parameter_File>
/export/apps/rDock/src/rDock_2013.1_src/data/scripts/dock_solv.prm

>  <Rbt.Receptor>
prm/blind_docking_20.prm

>  <SCORE>
-5.68965

>  <SCORE.INTER>
-13.2402

>  <SCORE.INTER.CONST>
1

>  <SCORE.INTER.POLAR>
-0.0372312

>  <SCORE.INTER.ROT>
10

>  <SCORE.INTER.SOLV>
12.3397

>  <SCORE.INTER.VDW>
-23.0826

>  <SCORE.INTER.norm>
-0.575662

>  <SCORE.INTRA>
-1.58976

>  <SCORE.INTRA.DIHEDRAL>
-4.76888

>  <SCORE.INTRA.DIHEDRAL.0>
23.4151

>  <SCORE.INTRA.POLAR>
0

>  <SCORE.INTRA.POLAR.0>
0

>  <SCORE.INTRA.REPUL>
0

>  <SCORE.INTRA.REPUL.0>
0

>  <SCORE.INTRA.SOLV>
0.0671565

>  <SCORE.INTRA.SOLV.lig_0>
-17.3568

>  <SCORE.INTRA.VDW>
0.761098

>  <SCORE.INTRA.VDW.0>
1.0768

>  <SCORE.INTRA.norm>
-0.0691202

>  <SCORE.RESTR>
9.14034

>  <SCORE.RESTR.CAVITY>
9.14034

>  <SCORE.RESTR.norm>
0.397406

>  <SCORE.SYSTEM>
0

>  <SCORE.SYSTEM.CONST>
0

>  <SCORE.SYSTEM.DIHEDRAL>
0

>  <SCORE.SYSTEM.SOLV>
0

>  <SCORE.SYSTEM.norm>
0

>  <SCORE.heavy>
23

>  <SCORE.norm>
-0.247376

>  <RMSD>
16.167

$$$$
1uui_lig
 OpenBabel11021811413D
libRbt.so/2013.1/901 2013/11/27
 23 24  0  0  0  0  0  0  0  0999 V2000
   -7.8772    0.5688  -13.5261 C   0  0  0  0  0  0  0  0  0  0  0  0
   -7.3547    0.6108  -16.3856 O   0  0  0  0  0  0  0  0  0  0  0  0
   -5.6066    5.0689  -13.2916 O   0  0  0  0  0  0  0  0  0  0  0  0
   -6.2713   -0.3050  -16.5891 C   0  0  0  0  0  0  0  0  0  0  0  0
   -6.7436    5.7559  -12.7632 C   0  0  0  0  0  0  0  0  0  0  0  0
   -9.1351    1.0497  -12.8661 N   0  0  0  0  0  0  0  0  0  0  0  0
   -5.7380   -0.7584  -15.2292 C   0  0  0  0  0  0  0  0  0  0  0  0
   -8.8830    1.4583  -11.4574 C   0  0  0  0  0  0  0  0  0  0  0  0
  -10.1864   -0.0012  -12.8969 C   0  0  0  0  0  0  0  0  0  0  0  0
   -4.2585   -0.3841  -15.0956 C   0  0  0  0  0  0  0  0  0  0  0  0
   -8.3595    0.2900  -10.6048 C   0  0  0  0  0  0  0  0  0  0  0  0
   -9.7315   -1.2799  -12.1729 C   0  0  0  0  0  0  0  0  0  0  0  0
   -4.0962    1.0716  -15.3081 N   0  0  0  0  0  0  0  0  0  0  0  0
   -8.5588   -1.0318  -11.2776 N   0  0  0  0  0  0  0  0  0  0  0  0
   -7.7771   -2.1271  -10.8659 C   0  0  0  0  0  0  0  0  0  0  0  0
   -7.6669   -3.2382  -11.6484 N   0  0  0  0  0  0  0  0  0  0  0  0
   -7.2231   -2.1578   -9.6202 N   0  0  0  0  0  0  0  0  0  0  0  0
   -6.9136    1.7265  -15.6067 C   0  0  0  0  0  0  0  0  0  0  0  0
   -7.1472    1.7512  -14.2045 C   0  0  0  0  0  0  0  0  0  0  0  0
   -6.7107    2.8650  -13.4347 C   0  0  0  0  0  0  0  0  0  0  0  0
   -6.0432    3.9490  -14.0670 C   0  0  0  0  0  0  0  0  0  0  0  0
   -5.8103    3.9208  -15.4671 C   0  0  0  0  0  0  0  0  0  0  0  0
   -6.2465    2.8103  -16.2366 C   0  0  0  0  0  0  0  0  0  0  0  0
  2  4  1  0  0  0  0
  3  5  1  0  0  0  0
  4  7  1  0  0  0  0
  6  1  1  0  0  0  0
  7 10  1  0  0  0  0
  8  6  1  0  0  0  0
  8 11  1  0  0  0  0
  9  6  1  0  0  0  0
 10 13  1  0  0  0  0
 11 14  1  0  0  0  0
 12  9  1  0  0  0  0
 14 12  1  0  0  0  0
 14 15  1  0  0  0  0
 15 16  1  0  0  0  0
 15 17  1  0  0  0  0
 18  2  1  0  0  0  0
 18 23  2  0  0  0  0
 19  1  1  0  0  0  0
 19 18  1  0  0  0  0
 20 19  2  0  0  0  0
 21  3  1  0  0  0  0
 21 20  1  0  0  0  0
 22 21  2  0  0  0  0
 22 23  1  0  0  0  0
M  END
>  <CHROM.1>
57.85025992,-120.43290809,-90.04766991,56.03040324,177.91292847,-163.13528732
55.79093253,159.71963173,-97.34317937,-119.92858850,-65.54433844,-7.13116118
0.89780554,-13.47260834,2.37152430,-1.00751272,-3.08144799

>  <Name>
1uui_lig

>  <RI>
0

>  <Rbt.Current_Directory>
/home/itssahil/PROJECTS/Mol_Feturizer/New_Systems/rnas/1uui

>  <Rbt.Executable>
rbdock ($Id: //depot/dev/client3/rdock/2013.1/src/exe/rbdock.cxx#4 $)

>  <Rbt.Library>
libRbt.so (2013.1, Build901 2013/11/27)

>  <Rbt.Parameter_File>
/export/apps/rDock/src/rDock_2013.1_src/data/scripts/dock_solv.prm

>  <Rbt.Receptor>
prm/blind_docking_20.prm

>  <SCORE>
-6.13135

>  <SCORE.INTER>
-13.7744

>  <SCORE.INTER.CONST>
1

>  <SCORE.INTER.POLAR>
0

>  <SCORE.INTER.ROT>
10

>  <SCORE.INTER.SOLV>
13.2586

>  <SCORE.INTER.VDW>
-23.8692

>  <SCORE.INTER.norm>
-0.598888

>  <SCORE.INTRA>
-0.275425

>  <SCORE.INTRA.DIHEDRAL>
-2.78457

>  <SCORE.INTRA.DIHEDRAL.0>
23.4151

>  <SCORE.INTRA.POLAR>
0

>  <SCORE.INTRA.POLAR.0>
0

>  <SCORE.INTRA.REPUL>
0

>  <SCORE.INTRA.REPUL.0>
0

>  <SCORE.INTRA.SOLV>
0.930747

>  <SCORE.INTRA.SOLV.lig_0>
-17.3568

>  <SCORE.INTRA.VDW>
0.651487

>  <SCORE.INTRA.VDW.0>
1.0768

>  <SCORE.INTRA.norm>
-0.011975

>  <SCORE.RESTR>
7.91849

>  <SCORE.RESTR.CAVITY>
7.91849

>  <SCORE.RESTR.norm>
0.344282

>  <SCORE.SYSTEM>
0

>  <SCORE.SYSTEM.CONST>
0

>  <SCORE.SYSTEM.DIHEDRAL>
0

>  <SCORE.SYSTEM.SOLV>
0

>  <SCORE.SYSTEM.norm>
0

>  <SCORE.heavy>
23

>  <SCORE.norm>
-0.266581

>  <RMSD>
16.186

$$$$
1uui_lig
 OpenBabel11021811413D
libRbt.so/2013.1/901 2013/11/27
 23 24  0  0  0  0  0  0  0  0999 V2000
   -7.6566    0.3992  -13.2670 C   0  0  0  0  0  0  0  0  0  0  0  0
   -5.0746   -0.5730  -14.1835 O   0  0  0  0  0  0  0  0  0  0  0  0
   -6.1222    5.0149  -14.6094 O   0  0  0  0  0  0  0  0  0  0  0  0
   -5.7021   -1.2709  -15.2667 C   0  0  0  0  0  0  0  0  0  0  0  0
   -5.0379    5.7503  -14.0370 C   0  0  0  0  0  0  0  0  0  0  0  0
   -8.4133    1.0854  -12.1689 N   0  0  0  0  0  0  0  0  0  0  0  0
   -4.6459   -1.6155  -16.3178 C   0  0  0  0  0  0  0  0  0  0  0  0
   -8.0606    0.5224  -10.8372 C   0  0  0  0  0  0  0  0  0  0  0  0
   -9.8802    0.9710  -12.3828 C   0  0  0  0  0  0  0  0  0  0  0  0
   -3.7620   -2.7617  -15.8158 C   0  0  0  0  0  0  0  0  0  0  0  0
   -8.4024   -0.9739  -10.7366 C   0  0  0  0  0  0  0  0  0  0  0  0
  -10.3346   -0.4980  -12.4238 C   0  0  0  0  0  0  0  0  0  0  0  0
   -2.8944   -2.2731  -14.7208 N   0  0  0  0  0  0  0  0  0  0  0  0
   -9.3109   -1.4193  -11.8393 N   0  0  0  0  0  0  0  0  0  0  0  0
   -9.3739   -2.7894  -12.1543 C   0  0  0  0  0  0  0  0  0  0  0  0
   -8.7884   -3.2719  -13.2872 N   0  0  0  0  0  0  0  0  0  0  0  0
  -10.1334   -3.6411  -11.4078 N   0  0  0  0  0  0  0  0  0  0  0  0
   -5.3383    0.8292  -14.2859 C   0  0  0  0  0  0  0  0  0  0  0  0
   -6.5872    1.3512  -13.8511 C   0  0  0  0  0  0  0  0  0  0  0  0
   -6.8465    2.7458  -13.9590 C   0  0  0  0  0  0  0  0  0  0  0  0
   -5.8589    3.6132  -14.5000 C   0  0  0  0  0  0  0  0  0  0  0  0
   -4.6123    3.0891  -14.9320 C   0  0  0  0  0  0  0  0  0  0  0  0
   -4.3528    1.6974  -14.8259 C   0  0  0  0  0  0  0  0  0  0  0  0
  2  4  1  0  0  0  0
  3  5  1  0  0  0  0
  4  7  1  0  0  0  0
  6  1  1  0  0  0  0
  7 10  1  0  0  0  0
  8  6  1  0  0  0  0
  8 11  1  0  0  0  0
  9  6  1  0  0  0  0
 10 13  1  0  0  0  0
 11 14  1  0  0  0  0
 12  9  1  0  0  0  0
 14 12  1  0  0  0  0
 14 15  1  0  0  0  0
 15 16  1  0  0  0  0
 15 17  1  0  0  0  0
 18  2  1  0  0  0  0
 18 23  2  0  0  0  0
 19  1  1  0  0  0  0
 19 18  1  0  0  0  0
 20 19  2  0  0  0  0
 21  3  1  0  0  0  0
 21 20  1  0  0  0  0
 22 21  2  0  0  0  0
 22 23  1  0  0  0  0
M  END
>  <CHROM.1>
102.15921608,73.80774327,-108.82063313,-70.74509778,-81.79293374,-106.22288247
-59.21447435,-16.40336160,79.66270495,144.60188157,129.70327101,-6.83556158
0.19316369,-13.54166456,2.37092010,-0.57775955,-3.11989749

>  <Name>
1uui_lig

>  <RI>
0

>  <Rbt.Current_Directory>
/home/itssahil/PROJECTS/Mol_Feturizer/New_Systems/rnas/1uui

>  <Rbt.Executable>
rbdock ($Id: //depot/dev/client3/rdock/2013.1/src/exe/rbdock.cxx#4 $)

>  <Rbt.Library>
libRbt.so (2013.1, Build901 2013/11/27)

>  <Rbt.Parameter_File>
/export/apps/rDock/src/rDock_2013.1_src/data/scripts/dock_solv.prm

>  <Rbt.Receptor>
prm/blind_docking_20.prm

>  <SCORE>
-10.939

>  <SCORE.INTER>
-17.6009

>  <SCORE.INTER.CONST>
1

>  <SCORE.INTER.POLAR>
-2.55712

>  <SCORE.INTER.ROT>
10

>  <SCORE.INTER.SOLV>
10.3992

>  <SCORE.INTER.VDW>
-16.9433

>  <SCORE.INTER.norm>
-0.765258

>  <SCORE.INTRA>
-3.00888

>  <SCORE.INTRA.DIHEDRAL>
-0.442029

>  <SCORE.INTRA.DIHEDRAL.0>
23.4151

>  <SCORE.INTRA.POLAR>
-0.789818

>  <SCORE.INTRA.POLAR.0>
0

>  <SCORE.INTRA.REPUL>
0

>  <SCORE.INTRA.REPUL.0>
0

>  <SCORE.INTRA.SOLV>
0.516031

>  <SCORE.INTRA.SOLV.lig_0>
-17.3568

>  <SCORE.INTRA.VDW>
-0.360502

>  <SCORE.INTRA.VDW.0>
1.0768

>  <SCORE.INTRA.norm>
-0.130821

>  <SCORE.RESTR>
9.67077

>  <SCORE.RESTR.CAVITY>
9.67077

>  <SCORE.RESTR.norm>
0.420468

>  <SCORE.SYSTEM>
0

>  <SCORE.SYSTEM.CONST>
0

>  <SCORE.SYSTEM.DIHEDRAL>
0

>  <SCORE.SYSTEM.SOLV>
0

>  <SCORE.SYSTEM.norm>
0

>  <SCORE.heavy>
23

>  <SCORE.norm>
-0.475611

>  <RMSD>
16.325

$$$$
1uui_lig
 OpenBabel11021811413D
libRbt.so/2013.1/901 2013/11/27
 23 24  0  0  0  0  0  0  0  0999 V2000
   -7.8264    0.8775  -13.2081 C   0  0  0  0  0  0  0  0  0  0  0  0
   -5.1001    0.3172  -14.0477 O   0  0  0  0  0  0  0  0  0  0  0  0
   -6.8283    5.7502  -14.0580 O   0  0  0  0  0  0  0  0  0  0  0  0
   -5.3748   -0.2840  -15.3194 C   0  0  0  0  0  0  0  0  0  0  0  0
   -6.5434    6.3369  -15.3303 C   0  0  0  0  0  0  0  0  0  0  0  0
   -8.7511    1.3774  -12.1384 N   0  0  0  0  0  0  0  0  0  0  0  0
   -4.4590   -1.4942  -15.5083 C   0  0  0  0  0  0  0  0  0  0  0  0
   -8.3682    0.8455  -10.8023 C   0  0  0  0  0  0  0  0  0  0  0  0
  -10.1590    1.0035  -12.4360 C   0  0  0  0  0  0  0  0  0  0  0  0
   -4.1032   -1.6555  -16.9897 C   0  0  0  0  0  0  0  0  0  0  0  0
   -8.4327   -0.6906  -10.7549 C   0  0  0  0  0  0  0  0  0  0  0  0
  -10.3319   -0.5217  -12.5356 C   0  0  0  0  0  0  0  0  0  0  0  0
   -5.1441   -2.4646  -17.6624 N   0  0  0  0  0  0  0  0  0  0  0  0
   -9.1866   -1.2586  -11.9162 N   0  0  0  0  0  0  0  0  0  0  0  0
   -8.9798   -2.6061  -12.2653 C   0  0  0  0  0  0  0  0  0  0  0  0
   -9.9555   -3.5366  -12.0621 N   0  0  0  0  0  0  0  0  0  0  0  0
   -7.7566   -3.0358  -12.6880 N   0  0  0  0  0  0  0  0  0  0  0  0
   -5.5347    1.6800  -14.0458 C   0  0  0  0  0  0  0  0  0  0  0  0
   -6.8596    2.0029  -13.6439 C   0  0  0  0  0  0  0  0  0  0  0  0
   -7.2888    3.3593  -13.6479 C   0  0  0  0  0  0  0  0  0  0  0  0
   -6.3944    4.3872  -14.0528 C   0  0  0  0  0  0  0  0  0  0  0  0
   -5.0717    4.0616  -14.4525 C   0  0  0  0  0  0  0  0  0  0  0  0
   -4.6426    2.7083  -14.4499 C   0  0  0  0  0  0  0  0  0  0  0  0
  2  4  1  0  0  0  0
  3  5  1  0  0  0  0
  4  7  1  0  0  0  0
  6  1  1  0  0  0  0
  7 10  1  0  0  0  0
  8  6  1  0  0  0  0
  8 11  1  0  0  0  0
  9  6  1  0  0  0  0
 10 13  1  0  0  0  0
 11 14  1  0  0  0  0
 12  9  1  0  0  0  0
 14 12  1  0  0  0  0
 14 15  1  0  0  0  0
 15 16  1  0  0  0  0
 15 17  1  0  0  0  0
 18  2  1  0  0  0  0
 18 23  2  0  0  0  0
 19  1  1  0  0  0  0
 19 18  1  0  0  0  0
 20 19  2  0  0  0  0
 21  3  1  0  0  0  0
 21 20  1  0  0  0  0
 22 21  2  0  0  0  0
 22 23  1  0  0  0  0
M  END
>  <CHROM.1>
158.13652518,-147.12182863,-105.07491418,-86.99211335,-179.50295256,109.99367496
-51.84615136,-41.87648953,89.73616272,146.70522248,-128.55157810,-7.10846984
0.66233814,-13.67606538,2.11945773,-0.74914288,-3.06237491

>  <Name>
1uui_lig

>  <RI>
0

>  <Rbt.Current_Directory>
/home/itssahil/PROJECTS/Mol_Feturizer/New_Systems/rnas/1uui

>  <Rbt.Executable>
rbdock ($Id: //depot/dev/client3/rdock/2013.1/src/exe/rbdock.cxx#4 $)

>  <Rbt.Library>
libRbt.so (2013.1, Build901 2013/11/27)

>  <Rbt.Parameter_File>
/export/apps/rDock/src/rDock_2013.1_src/data/scripts/dock_solv.prm

>  <Rbt.Receptor>
prm/blind_docking_20.prm

>  <SCORE>
10.7827

>  <SCORE.INTER>
1.83302

>  <SCORE.INTER.CONST>
1

>  <SCORE.INTER.POLAR>
-0.745688

>  <SCORE.INTER.ROT>
10

>  <SCORE.INTER.SOLV>
9.04153

>  <SCORE.INTER.VDW>
-9.57287

>  <SCORE.INTER.norm>
0.0796966

>  <SCORE.INTRA>
-0.911312

>  <SCORE.INTRA.DIHEDRAL>
-0.580526

>  <SCORE.INTRA.DIHEDRAL.0>
23.4151

>  <SCORE.INTRA.POLAR>
0

>  <SCORE.INTRA.POLAR.0>
0

>  <SCORE.INTRA.REPUL>
0

>  <SCORE.INTRA.REPUL.0>
0

>  <SCORE.INTRA.SOLV>
0.0381422

>  <SCORE.INTRA.SOLV.lig_0>
-17.3568

>  <SCORE.INTRA.VDW>
-0.64012

>  <SCORE.INTRA.VDW.0>
1.0768

>  <SCORE.INTRA.norm>
-0.0396222

>  <SCORE.RESTR>
9.861

>  <SCORE.RESTR.CAVITY>
9.861

>  <SCORE.RESTR.norm>
0.428739

>  <SCORE.SYSTEM>
0

>  <SCORE.SYSTEM.CONST>
0

>  <SCORE.SYSTEM.DIHEDRAL>
0

>  <SCORE.SYSTEM.SOLV>
0

>  <SCORE.SYSTEM.norm>
0

>  <SCORE.heavy>
23

>  <SCORE.norm>
0.468813

>  <RMSD>
16.417

$$$$
1uui_lig
 OpenBabel11021811413D
libRbt.so/2013.1/901 2013/11/27
 23 24  0  0  0  0  0  0  0  0999 V2000
   -6.3925    0.1236  -13.2840 C   0  0  0  0  0  0  0  0  0  0  0  0
   -7.4139   -2.4380  -12.3641 O   0  0  0  0  0  0  0  0  0  0  0  0
  -11.1000    1.8852  -12.8396 O   0  0  0  0  0  0  0  0  0  0  0  0
   -7.6900   -3.1843  -11.1720 C   0  0  0  0  0  0  0  0  0  0  0  0
  -12.2697    1.4430  -13.5326 C   0  0  0  0  0  0  0  0  0  0  0  0
   -6.1173   -0.3686  -14.6738 N   0  0  0  0  0  0  0  0  0  0  0  0
   -6.8060   -4.4321  -11.1476 C   0  0  0  0  0  0  0  0  0  0  0  0
   -4.7163   -0.0765  -15.0820 C   0  0  0  0  0  0  0  0  0  0  0  0
   -7.0562    0.2444  -15.6500 C   0  0  0  0  0  0  0  0  0  0  0  0
   -6.9311   -5.1361   -9.7927 C   0  0  0  0  0  0  0  0  0  0  0  0
   -4.4210    1.4330  -15.0850 C   0  0  0  0  0  0  0  0  0  0  0  0
   -6.9422    1.7784  -15.6604 C   0  0  0  0  0  0  0  0  0  0  0  0
   -5.6113   -5.6721   -9.3909 N   0  0  0  0  0  0  0  0  0  0  0  0
   -5.6725    2.2516  -15.0262 N   0  0  0  0  0  0  0  0  0  0  0  0
   -5.5892    3.5876  -14.5917 C   0  0  0  0  0  0  0  0  0  0  0  0
   -6.2740    4.0062  -13.4895 N   0  0  0  0  0  0  0  0  0  0  0  0
   -4.9325    4.5221  -15.3366 N   0  0  0  0  0  0  0  0  0  0  0  0
   -8.3377   -1.3529  -12.4878 C   0  0  0  0  0  0  0  0  0  0  0  0
   -7.8845   -0.0810  -12.9332 C   0  0  0  0  0  0  0  0  0  0  0  0
   -8.8060    0.9964  -13.0504 C   0  0  0  0  0  0  0  0  0  0  0  0
  -10.1752    0.8002  -12.7229 C   0  0  0  0  0  0  0  0  0  0  0  0
  -10.6249   -0.4712  -12.2797 C   0  0  0  0  0  0  0  0  0  0  0  0
   -9.7059   -1.5470  -12.1613 C   0  0  0  0  0  0  0  0  0  0  0  0
  2  4  1  0  0  0  0
  3  5  1  0  0  0  0
  4  7  1  0  0  0  0
  6  1  1  0  0  0  0
  7 10  1  0  0  0  0
  8  6  1  0  0  0  0
  8 11  1  0  0  0  0
  9  6  1  0  0  0  0
 10 13  1  0  0  0  0
 11 14  1  0  0  0  0
 12  9  1  0  0  0  0
 14 12  1  0  0  0  0
 14 15  1  0  0  0  0
 15 16  1  0  0  0  0
 15 17  1  0  0  0  0
 18  2  1  0  0  0  0
 18 23  2  0  0  0  0
 19  1  1  0  0  0  0
 19 18  1  0  0  0  0
 20 19  2  0  0  0  0
 21  3  1  0  0  0  0
 21 20  1  0  0  0  0
 22 21  2  0  0  0  0
 22 23  1  0  0  0  0
M  END
>  <CHROM.1>
173.17750337,171.70806783,175.06190723,-142.32124943,-1.19221306,-119.71637514
175.21729408,-97.65552131,139.25690344,81.83739131,132.56270051,-7.40569640
-0.07824226,-13.19412629,-1.46108584,-0.20818405,2.63046913

>  <Name>
1uui_lig

>  <RI>
0

>  <Rbt.Current_Directory>
/home/itssahil/PROJECTS/Mol_Feturizer/New_Systems/rnas/1uui

>  <Rbt.Executable>
rbdock ($Id: //depot/dev/client3/rdock/2013.1/src/exe/rbdock.cxx#4 $)

>  <Rbt.Library>
libRbt.so (2013.1, Build901 2013/11/27)

>  <Rbt.Parameter_File>
/export/apps/rDock/src/rDock_2013.1_src/data/scripts/dock_solv.prm

>  <Rbt.Receptor>
prm/blind_docking_20.prm

>  <SCORE>
-21.2028

>  <SCORE.INTER>
-24.3844

>  <SCORE.INTER.CONST>
1

>  <SCORE.INTER.POLAR>
-2.20337

>  <SCORE.INTER.ROT>
10

>  <SCORE.INTER.SOLV>
14.3054

>  <SCORE.INTER.VDW>
-23.9468

>  <SCORE.INTER.norm>
-1.06019

>  <SCORE.INTRA>
-1.72276

>  <SCORE.INTRA.DIHEDRAL>
-6.48153

>  <SCORE.INTRA.DIHEDRAL.0>
23.4151

>  <SCORE.INTRA.POLAR>
0

>  <SCORE.INTRA.POLAR.0>
0

>  <SCORE.INTRA.REPUL>
0

>  <SCORE.INTRA.REPUL.0>
0

>  <SCORE.INTRA.SOLV>
0.31073

>  <SCORE.INTRA.SOLV.lig_0>
-17.3568

>  <SCORE.INTRA.VDW>
1.36264

>  <SCORE.INTRA.VDW.0>
1.0768

>  <SCORE.INTRA.norm>
-0.0749025

>  <SCORE.RESTR>
4.90433

>  <SCORE.RESTR.CAVITY>
4.90433

>  <SCORE.RESTR.norm>
0.213232

>  <SCORE.SYSTEM>
0

>  <SCORE.SYSTEM.CONST>
0

>  <SCORE.SYSTEM.DIHEDRAL>
0

>  <SCORE.SYSTEM.SOLV>
0

>  <SCORE.SYSTEM.norm>
0

>  <SCORE.heavy>
23

>  <SCORE.norm>
-0.921863

>  <RMSD>
16.479

$$$$
1uui_lig
 OpenBabel11021811413D
libRbt.so/2013.1/901 2013/11/27
 23 24  0  0  0  0  0  0  0  0999 V2000
   -6.3035    0.1132  -13.4104 C   0  0  0  0  0  0  0  0  0  0  0  0
   -7.1255   -2.6027  -12.7780 O   0  0  0  0  0  0  0  0  0  0  0  0
  -11.0127    1.5394  -12.2919 O   0  0  0  0  0  0  0  0  0  0  0  0
   -7.5556   -3.7625  -12.0543 C   0  0  0  0  0  0  0  0  0  0  0  0
  -11.9419    1.4544  -13.3751 C   0  0  0  0  0  0  0  0  0  0  0  0
   -6.1052   -0.2933  -14.8404 N   0  0  0  0  0  0  0  0  0  0  0  0
   -7.1430   -3.6186  -10.5886 C   0  0  0  0  0  0  0  0  0  0  0  0
   -4.7516    0.0883  -15.3270 C   0  0  0  0  0  0  0  0  0  0  0  0
   -7.1382    0.3213  -15.7154 C   0  0  0  0  0  0  0  0  0  0  0  0
   -7.0629   -4.9991   -9.9292 C   0  0  0  0  0  0  0  0  0  0  0  0
   -4.5270    1.6089  -15.2682 C   0  0  0  0  0  0  0  0  0  0  0  0
   -7.0957    1.8575  -15.6503 C   0  0  0  0  0  0  0  0  0  0  0  0
   -6.0261   -5.8101  -10.6057 N   0  0  0  0  0  0  0  0  0  0  0  0
   -5.8074    2.3603  -15.0797 N   0  0  0  0  0  0  0  0  0  0  0  0
   -5.7550    3.6749  -14.5800 C   0  0  0  0  0  0  0  0  0  0  0  0
   -4.9976    4.6257  -15.1976 N   0  0  0  0  0  0  0  0  0  0  0  0
   -6.3502    3.9935  -13.3952 N   0  0  0  0  0  0  0  0  0  0  0  0
   -8.1001   -1.5623  -12.6605 C   0  0  0  0  0  0  0  0  0  0  0  0
   -7.7446   -0.2184  -12.9583 C   0  0  0  0  0  0  0  0  0  0  0  0
   -8.7162    0.8136  -12.8356 C   0  0  0  0  0  0  0  0  0  0  0  0
  -10.0377    0.5002  -12.4165 C   0  0  0  0  0  0  0  0  0  0  0  0
  -10.3900   -0.8429  -12.1210 C   0  0  0  0  0  0  0  0  0  0  0  0
   -9.4209   -1.8734  -12.2421 C   0  0  0  0  0  0  0  0  0  0  0  0
  2  4  1  0  0  0  0
  3  5  1  0  0  0  0
  4  7  1  0  0  0  0
  6  1  1  0  0  0  0
  7 10  1  0  0  0  0
  8  6  1  0  0  0  0
  8 11  1  0  0  0  0
  9  6  1  0  0  0  0
 10 13  1  0  0  0  0
 11 14  1  0  0  0  0
 12  9  1  0  0  0  0
 14 12  1  0  0  0  0
 14 15  1  0  0  0  0
 15 16  1  0  0  0  0
 15 17  1  0  0  0  0
 18  2  1  0  0  0  0
 18 23  2  0  0  0  0
 19  1  1  0  0  0  0
 19 18  1  0  0  0  0
 20 19  2  0  0  0  0
 21  3  1  0  0  0  0
 21 20  1  0  0  0  0
 22 21  2  0  0  0  0
 22 23  1  0  0  0  0
M  END
>  <CHROM.1>
-85.13087095,-157.27253879,176.60535740,62.08624032,179.97784465,55.31249219
89.19823274,170.27214387,162.16802590,76.20475397,106.15597378,-7.39618509
-0.11678242,-13.27431196,-1.38724524,-0.30155556,2.70509630

>  <Name>
1uui_lig

>  <RI>
0

>  <Rbt.Current_Directory>
/home/itssahil/PROJECTS/Mol_Feturizer/New_Systems/rnas/1uui

>  <Rbt.Executable>
rbdock ($Id: //depot/dev/client3/rdock/2013.1/src/exe/rbdock.cxx#4 $)

>  <Rbt.Library>
libRbt.so (2013.1, Build901 2013/11/27)

>  <Rbt.Parameter_File>
/export/apps/rDock/src/rDock_2013.1_src/data/scripts/dock_solv.prm

>  <Rbt.Receptor>
prm/blind_docking_20.prm

>  <SCORE>
-20.4609

>  <SCORE.INTER>
-21.9621

>  <SCORE.INTER.CONST>
1

>  <SCORE.INTER.POLAR>
-2.05168

>  <SCORE.INTER.ROT>
10

>  <SCORE.INTER.SOLV>
13.3201

>  <SCORE.INTER.VDW>
-22.5091

>  <SCORE.INTER.norm>
-0.954873

>  <SCORE.INTRA>
-3.34729

>  <SCORE.INTRA.DIHEDRAL>
-9.72139

>  <SCORE.INTRA.DIHEDRAL.0>
23.4151

>  <SCORE.INTRA.POLAR>
0

>  <SCORE.INTRA.POLAR.0>
0

>  <SCORE.INTRA.REPUL>
0

>  <SCORE.INTRA.REPUL.0>
0

>  <SCORE.INTRA.SOLV>
0.48867

>  <SCORE.INTRA.SOLV.lig_0>
-17.3568

>  <SCORE.INTRA.VDW>
1.26907

>  <SCORE.INTRA.VDW.0>
1.0768

>  <SCORE.INTRA.norm>
-0.145534

>  <SCORE.RESTR>
4.8485

>  <SCORE.RESTR.CAVITY>
4.8485

>  <SCORE.RESTR.norm>
0.210804

>  <SCORE.SYSTEM>
0

>  <SCORE.SYSTEM.CONST>
0

>  <SCORE.SYSTEM.DIHEDRAL>
0

>  <SCORE.SYSTEM.SOLV>
0

>  <SCORE.SYSTEM.norm>
0

>  <SCORE.heavy>
23

>  <SCORE.norm>
-0.889603

>  <RMSD>
16.547

$$$$
1uui_lig
 OpenBabel11021811413D
libRbt.so/2013.1/901 2013/11/27
 23 24  0  0  0  0  0  0  0  0999 V2000
   -7.0575    1.0261  -13.1386 C   0  0  0  0  0  0  0  0  0  0  0  0
   -5.4725   -1.1237  -14.2865 O   0  0  0  0  0  0  0  0  0  0  0  0
   -4.4533    4.1903  -16.0828 O   0  0  0  0  0  0  0  0  0  0  0  0
   -6.8059   -1.5120  -14.6406 C   0  0  0  0  0  0  0  0  0  0  0  0
   -5.3047    4.4881  -17.1920 C   0  0  0  0  0  0  0  0  0  0  0  0
   -8.3451    1.6788  -13.5456 N   0  0  0  0  0  0  0  0  0  0  0  0
   -7.3163   -2.5326  -13.6222 C   0  0  0  0  0  0  0  0  0  0  0  0
   -9.1177    2.1347  -12.3581 C   0  0  0  0  0  0  0  0  0  0  0  0
   -9.1793    0.7502  -14.3532 C   0  0  0  0  0  0  0  0  0  0  0  0
   -8.4757   -3.3352  -14.2211 C   0  0  0  0  0  0  0  0  0  0  0  0
   -9.4925    0.9650  -11.4322 C   0  0  0  0  0  0  0  0  0  0  0  0
   -9.5239   -0.5287  -13.5710 C   0  0  0  0  0  0  0  0  0  0  0  0
   -8.9030   -4.3772  -13.2609 N   0  0  0  0  0  0  0  0  0  0  0  0
   -9.3104   -0.3621  -12.0996 N   0  0  0  0  0  0  0  0  0  0  0  0
   -9.1848   -1.5124  -11.2987 C   0  0  0  0  0  0  0  0  0  0  0  0
   -8.0110   -1.7966  -10.6660 N   0  0  0  0  0  0  0  0  0  0  0  0
  -10.1865   -2.4362  -11.2454 N   0  0  0  0  0  0  0  0  0  0  0  0
   -5.2159    0.2109  -14.7329 C   0  0  0  0  0  0  0  0  0  0  0  0
   -5.9663    1.2949  -14.2007 C   0  0  0  0  0  0  0  0  0  0  0  0
   -5.7106    2.6199  -14.6510 C   0  0  0  0  0  0  0  0  0  0  0  0
   -4.7077    2.8575  -15.6299 C   0  0  0  0  0  0  0  0  0  0  0  0
   -3.9593    1.7731  -16.1584 C   0  0  0  0  0  0  0  0  0  0  0  0
   -4.2143    0.4502  -15.7106 C   0  0  0  0  0  0  0  0  0  0  0  0
  2  4  1  0  0  0  0
  3  5  1  0  0  0  0
  4  7  1  0  0  0  0
  6  1  1  0  0  0  0
  7 10  1  0  0  0  0
  8  6  1  0  0  0  0
  8 11  1  0  0  0  0
  9  6  1  0  0  0  0
 10 13  1  0  0  0  0
 11 14  1  0  0  0  0
 12  9  1  0  0  0  0
 14 12  1  0  0  0  0
 14 15  1  0  0  0  0
 15 16  1  0  0  0  0
 15 17  1  0  0  0  0
 18  2  1  0  0  0  0
 18 23  2  0  0  0  0
 19  1  1  0  0  0  0
 19 18  1  0  0  0  0
 20 19  2  0  0  0  0
 21  3  1  0  0  0  0
 21 20  1  0  0  0  0
 22 21  2  0  0  0  0
 22 23  1  0  0  0  0
M  END
>  <CHROM.1>
-151.21999352,-159.30965121,-147.30780338,176.34859243,69.38471151,-77.43662615
-7.86928271,-148.96950199,63.48712720,-128.96968685,-88.75851549,-7.27585512
0.14370878,-13.78733174,0.76633357,0.67857693,-0.05017019

>  <Name>
1uui_lig

>  <RI>
0

>  <Rbt.Current_Directory>
/home/itssahil/PROJECTS/Mol_Feturizer/New_Systems/rnas/1uui

>  <Rbt.Executable>
rbdock ($Id: //depot/dev/client3/rdock/2013.1/src/exe/rbdock.cxx#4 $)

>  <Rbt.Library>
libRbt.so (2013.1, Build901 2013/11/27)

>  <Rbt.Parameter_File>
/export/apps/rDock/src/rDock_2013.1_src/data/scripts/dock_solv.prm

>  <Rbt.Receptor>
prm/blind_docking_20.prm

>  <SCORE>
-4.39649

>  <SCORE.INTER>
-10.5158

>  <SCORE.INTER.CONST>
1

>  <SCORE.INTER.POLAR>
-1.8079

>  <SCORE.INTER.ROT>
10

>  <SCORE.INTER.SOLV>
9.79648

>  <SCORE.INTER.VDW>
-14.5163

>  <SCORE.INTER.norm>
-0.457207

>  <SCORE.INTRA>
-3.60078

>  <SCORE.INTRA.DIHEDRAL>
-3.44691

>  <SCORE.INTRA.DIHEDRAL.0>
23.4151

>  <SCORE.INTRA.POLAR>
-0.514711

>  <SCORE.INTRA.POLAR.0>
0

>  <SCORE.INTRA.REPUL>
0

>  <SCORE.INTRA.REPUL.0>
0

>  <SCORE.INTRA.SOLV>
2.44377

>  <SCORE.INTRA.SOLV.lig_0>
-17.3568

>  <SCORE.INTRA.VDW>
-1.3492

>  <SCORE.INTRA.VDW.0>
1.0768

>  <SCORE.INTRA.norm>
-0.156556

>  <SCORE.RESTR>
9.72006

>  <SCORE.RESTR.CAVITY>
9.72006

>  <SCORE.RESTR.norm>
0.422611

>  <SCORE.SYSTEM>
0

>  <SCORE.SYSTEM.CONST>
0

>  <SCORE.SYSTEM.DIHEDRAL>
0

>  <SCORE.SYSTEM.SOLV>
0

>  <SCORE.SYSTEM.norm>
0

>  <SCORE.heavy>
23

>  <SCORE.norm>
-0.191152

>  <RMSD>
16.548

$$$$
1uui_lig
 OpenBabel11021811413D
libRbt.so/2013.1/901 2013/11/27
 23 24  0  0  0  0  0  0  0  0999 V2000
   -6.1419    0.3046  -13.4167 C   0  0  0  0  0  0  0  0  0  0  0  0
   -7.2405   -2.3478  -12.9591 O   0  0  0  0  0  0  0  0  0  0  0  0
  -10.6618    2.1349  -12.1199 O   0  0  0  0  0  0  0  0  0  0  0  0
   -7.9203   -3.5559  -12.5955 C   0  0  0  0  0  0  0  0  0  0  0  0
  -11.9670    1.8417  -12.6246 C   0  0  0  0  0  0  0  0  0  0  0  0
   -5.9866   -0.0880  -14.8559 N   0  0  0  0  0  0  0  0  0  0  0  0
   -7.7975   -3.7634  -11.0852 C   0  0  0  0  0  0  0  0  0  0  0  0
   -4.6546    0.3140  -15.3841 C   0  0  0  0  0  0  0  0  0  0  0  0
   -7.0554    0.5210  -15.6909 C   0  0  0  0  0  0  0  0  0  0  0  0
   -6.5787   -4.6379  -10.7742 C   0  0  0  0  0  0  0  0  0  0  0  0
   -4.4463    1.8366  -15.3200 C   0  0  0  0  0  0  0  0  0  0  0  0
   -7.0291    2.0571  -15.6143 C   0  0  0  0  0  0  0  0  0  0  0  0
   -6.4136   -4.7516   -9.3078 N   0  0  0  0  0  0  0  0  0  0  0  0
   -5.7285    2.5709  -15.0826 N   0  0  0  0  0  0  0  0  0  0  0  0
   -5.6751    3.8820  -14.5740 C   0  0  0  0  0  0  0  0  0  0  0  0
   -4.9659    4.8516  -15.2188 N   0  0  0  0  0  0  0  0  0  0  0  0
   -6.2172    4.1797  -13.3586 N   0  0  0  0  0  0  0  0  0  0  0  0
   -8.0982   -1.2217  -12.7529 C   0  0  0  0  0  0  0  0  0  0  0  0
   -7.6053    0.0951  -12.9634 C   0  0  0  0  0  0  0  0  0  0  0  0
   -8.4608    1.2121  -12.7527 C   0  0  0  0  0  0  0  0  0  0  0  0
   -9.8037    1.0104  -12.3330 C   0  0  0  0  0  0  0  0  0  0  0  0
  -10.2933   -0.3057  -12.1249 C   0  0  0  0  0  0  0  0  0  0  0  0
   -9.4402   -1.4212  -12.3338 C   0  0  0  0  0  0  0  0  0  0  0  0
  2  4  1  0  0  0  0
  3  5  1  0  0  0  0
  4  7  1  0  0  0  0
  6  1  1  0  0  0  0
  7 10  1  0  0  0  0
  8  6  1  0  0  0  0
  8 11  1  0  0  0  0
  9  6  1  0  0  0  0
 10 13  1  0  0  0  0
 11 14  1  0  0  0  0
 12  9  1  0  0  0  0
 14 12  1  0  0  0  0
 14 15  1  0  0  0  0
 15 16  1  0  0  0  0
 15 17  1  0  0  0  0
 18  2  1  0  0  0  0
 18 23  2  0  0  0  0
 19  1  1  0  0  0  0
 19 18  1  0  0  0  0
 20 19  2  0  0  0  0
 21  3  1  0  0  0  0
 21 20  1  0  0  0  0
 22 21  2  0  0  0  0
 22 23  1  0  0  0  0
M  END
>  <CHROM.1>
-83.57409026,-92.81662338,170.46389548,175.97482536,69.16370617,56.26418083
-90.59056979,-18.81089812,175.85523897,73.21248770,139.46225556,-7.36248131
0.20853880,-13.25185995,-1.32007177,-0.37460884,2.72219844

>  <Name>
1uui_lig

>  <RI>
0

>  <Rbt.Current_Directory>
/home/itssahil/PROJECTS/Mol_Feturizer/New_Systems/rnas/1uui

>  <Rbt.Executable>
rbdock ($Id: //depot/dev/client3/rdock/2013.1/src/exe/rbdock.cxx#4 $)

>  <Rbt.Library>
libRbt.so (2013.1, Build901 2013/11/27)

>  <Rbt.Parameter_File>
/export/apps/rDock/src/rDock_2013.1_src/data/scripts/dock_solv.prm

>  <Rbt.Receptor>
prm/blind_docking_20.prm

>  <SCORE>
-16.5214

>  <SCORE.INTER>
-19.6999

>  <SCORE.INTER.CONST>
1

>  <SCORE.INTER.POLAR>
-0.991035

>  <SCORE.INTER.ROT>
10

>  <SCORE.INTER.SOLV>
14.79

>  <SCORE.INTER.VDW>
-25.0265

>  <SCORE.INTER.norm>
-0.856517

>  <SCORE.INTRA>
-0.736262

>  <SCORE.INTRA.DIHEDRAL>
-10.9255

>  <SCORE.INTRA.DIHEDRAL.0>
23.4151

>  <SCORE.INTRA.POLAR>
0

>  <SCORE.INTRA.POLAR.0>
0

>  <SCORE.INTRA.REPUL>
0

>  <SCORE.INTRA.REPUL.0>
0

>  <SCORE.INTRA.SOLV>
0.456831

>  <SCORE.INTRA.SOLV.lig_0>
-17.3568

>  <SCORE.INTRA.VDW>
4.49808

>  <SCORE.INTRA.VDW.0>
1.0768

>  <SCORE.INTRA.norm>
-0.0320114

>  <SCORE.RESTR>
3.91475

>  <SCORE.RESTR.CAVITY>
3.91475

>  <SCORE.RESTR.norm>
0.170207

>  <SCORE.SYSTEM>
0

>  <SCORE.SYSTEM.CONST>
0

>  <SCORE.SYSTEM.DIHEDRAL>
0

>  <SCORE.SYSTEM.SOLV>
0

>  <SCORE.SYSTEM.norm>
0

>  <SCORE.heavy>
23

>  <SCORE.norm>
-0.718321

>  <RMSD>
16.554

$$$$
1uui_lig
 OpenBabel11021811413D
libRbt.so/2013.1/901 2013/11/27
 23 24  0  0  0  0  0  0  0  0999 V2000
   -7.3355    0.8652  -13.0917 C   0  0  0  0  0  0  0  0  0  0  0  0
   -5.2689    0.2729  -15.0487 O   0  0  0  0  0  0  0  0  0  0  0  0
   -6.4361    5.7501  -13.9806 O   0  0  0  0  0  0  0  0  0  0  0  0
   -4.2838    0.1765  -16.0851 C   0  0  0  0  0  0  0  0  0  0  0  0
   -6.0038    6.5524  -15.0822 C   0  0  0  0  0  0  0  0  0  0  0  0
   -8.4795    1.4497  -12.3178 N   0  0  0  0  0  0  0  0  0  0  0  0
   -3.9992   -1.2993  -16.3685 C   0  0  0  0  0  0  0  0  0  0  0  0
   -8.5019    0.9395  -10.9200 C   0  0  0  0  0  0  0  0  0  0  0  0
   -9.7771    1.1462  -12.9771 C   0  0  0  0  0  0  0  0  0  0  0  0
   -3.4555   -1.9793  -15.1079 C   0  0  0  0  0  0  0  0  0  0  0  0
   -8.6726   -0.5883  -10.8681 C   0  0  0  0  0  0  0  0  0  0  0  0
  -10.0120   -0.3694  -13.0962 C   0  0  0  0  0  0  0  0  0  0  0  0
   -3.3487   -3.4371  -15.3400 N   0  0  0  0  0  0  0  0  0  0  0  0
   -9.1224   -1.1494  -12.1805 N   0  0  0  0  0  0  0  0  0  0  0  0
   -8.9144   -2.5168  -12.4405 C   0  0  0  0  0  0  0  0  0  0  0  0
   -9.3781   -3.4683  -11.5811 N   0  0  0  0  0  0  0  0  0  0  0  0
   -8.1311   -2.9157  -13.4830 N   0  0  0  0  0  0  0  0  0  0  0  0
   -5.5608    1.6464  -14.7762 C   0  0  0  0  0  0  0  0  0  0  0  0
   -6.5640    1.9852  -13.8275 C   0  0  0  0  0  0  0  0  0  0  0  0
   -6.8539    3.3527  -13.5631 C   0  0  0  0  0  0  0  0  0  0  0  0
   -6.1419    4.3757  -14.2463 C   0  0  0  0  0  0  0  0  0  0  0  0
   -5.1399    4.0342  -15.1922 C   0  0  0  0  0  0  0  0  0  0  0  0
   -4.8505    2.6699  -15.4576 C   0  0  0  0  0  0  0  0  0  0  0  0
  2  4  1  0  0  0  0
  3  5  1  0  0  0  0
  4  7  1  0  0  0  0
  6  1  1  0  0  0  0
  7 10  1  0  0  0  0
  8  6  1  0  0  0  0
  8 11  1  0  0  0  0
  9  6  1  0  0  0  0
 10 13  1  0  0  0  0
 11 14  1  0  0  0  0
 12  9  1  0  0  0  0
 14 12  1  0  0  0  0
 14 15  1  0  0  0  0
 15 16  1  0  0  0  0
 15 17  1  0  0  0  0
 18  2  1  0  0  0  0
 18 23  2  0  0  0  0
 19  1  1  0  0  0  0
 19 18  1  0  0  0  0
 20 19  2  0  0  0  0
 21  3  1  0  0  0  0
 21 20  1  0  0  0  0
 22 21  2  0  0  0  0
 22 23  1  0  0  0  0
M  END
>  <CHROM.1>
-179.41847320,-60.82529207,-131.34351869,172.76341694,-40.74806373,54.69057179
0.18011256,-120.57705124,176.78231487,-170.88863761,-158.33401968,-6.79228414
0.66842020,-13.77835568,1.99388360,-0.61891856,3.08802448

>  <Name>
1uui_lig

>  <RI>
0

>  <Rbt.Current_Directory>
/home/itssahil/PROJECTS/Mol_Feturizer/New_Systems/rnas/1uui

>  <Rbt.Executable>
rbdock ($Id: //depot/dev/client3/rdock/2013.1/src/exe/rbdock.cxx#4 $)

>  <Rbt.Library>
libRbt.so (2013.1, Build901 2013/11/27)

>  <Rbt.Parameter_File>
/export/apps/rDock/src/rDock_2013.1_src/data/scripts/dock_solv.prm

>  <Rbt.Receptor>
prm/blind_docking_20.prm

>  <SCORE>
-2.41066

>  <SCORE.INTER>
-15.6349

>  <SCORE.INTER.CONST>
1

>  <SCORE.INTER.POLAR>
-1.77635

>  <SCORE.INTER.ROT>
10

>  <SCORE.INTER.SOLV>
7.89985

>  <SCORE.INTER.VDW>
-17.402

>  <SCORE.INTER.norm>
-0.679777

>  <SCORE.INTRA>
2.5205

>  <SCORE.INTRA.DIHEDRAL>
-14.1476

>  <SCORE.INTRA.DIHEDRAL.0>
23.4151

>  <SCORE.INTRA.POLAR>
0

>  <SCORE.INTRA.POLAR.0>
0

>  <SCORE.INTRA.REPUL>
0

>  <SCORE.INTRA.REPUL.0>
0

>  <SCORE.INTRA.SOLV>
-0.0229962

>  <SCORE.INTRA.SOLV.lig_0>
-17.3568

>  <SCORE.INTRA.VDW>
9.60578

>  <SCORE.INTRA.VDW.0>
1.0768

>  <SCORE.INTRA.norm>
0.109587

>  <SCORE.RESTR>
10.7037

>  <SCORE.RESTR.CAVITY>
10.7037

>  <SCORE.RESTR.norm>
0.465379

>  <SCORE.SYSTEM>
0

>  <SCORE.SYSTEM.CONST>
0

>  <SCORE.SYSTEM.DIHEDRAL>
0

>  <SCORE.SYSTEM.SOLV>
0

>  <SCORE.SYSTEM.norm>
0

>  <SCORE.heavy>
23

>  <SCORE.norm>
-0.104811

>  <RMSD>
16.561

$$$$
1uui_lig
 OpenBabel11021811413D
libRbt.so/2013.1/901 2013/11/27
 23 24  0  0  0  0  0  0  0  0999 V2000
   -7.3446    1.3249  -13.1145 C   0  0  0  0  0  0  0  0  0  0  0  0
   -7.8035   -1.5000  -12.6041 O   0  0  0  0  0  0  0  0  0  0  0  0
  -12.3154    1.9847  -12.5514 O   0  0  0  0  0  0  0  0  0  0  0  0
   -8.2273   -2.8471  -12.8485 C   0  0  0  0  0  0  0  0  0  0  0  0
  -12.9519    1.9647  -13.8314 C   0  0  0  0  0  0  0  0  0  0  0  0
   -7.4360    2.5755  -13.9374 N   0  0  0  0  0  0  0  0  0  0  0  0
   -7.2640   -3.8086  -12.1508 C   0  0  0  0  0  0  0  0  0  0  0  0
   -7.7334    2.2635  -15.3618 C   0  0  0  0  0  0  0  0  0  0  0  0
   -6.1753    3.3593  -13.8544 C   0  0  0  0  0  0  0  0  0  0  0  0
   -7.8489   -4.2517  -10.8060 C   0  0  0  0  0  0  0  0  0  0  0  0
   -6.6359    1.3966  -16.0020 C   0  0  0  0  0  0  0  0  0  0  0  0
   -4.9691    2.5486  -14.3585 C   0  0  0  0  0  0  0  0  0  0  0  0
   -6.7618   -4.3658   -9.8082 N   0  0  0  0  0  0  0  0  0  0  0  0
   -5.3879    1.3680  -15.1765 N   0  0  0  0  0  0  0  0  0  0  0  0
   -4.4712    0.3178  -15.3693 C   0  0  0  0  0  0  0  0  0  0  0  0
   -3.3685    0.4900  -16.1524 N   0  0  0  0  0  0  0  0  0  0  0  0
   -4.7329   -0.9315  -14.8893 N   0  0  0  0  0  0  0  0  0  0  0  0
   -8.9346   -0.6244  -12.5952 C   0  0  0  0  0  0  0  0  0  0  0  0
   -8.7595    0.7653  -12.8389 C   0  0  0  0  0  0  0  0  0  0  0  0
   -9.8868    1.6330  -12.8245 C   0  0  0  0  0  0  0  0  0  0  0  0
  -11.1834    1.1105  -12.5672 C   0  0  0  0  0  0  0  0  0  0  0  0
  -11.3551   -0.2778  -12.3255 C   0  0  0  0  0  0  0  0  0  0  0  0
  -10.2307   -1.1446  -12.3385 C   0  0  0  0  0  0  0  0  0  0  0  0
  2  4  1  0  0  0  0
  3  5  1  0  0  0  0
  4  7  1  0  0  0  0
  6  1  1  0  0  0  0
  7 10  1  0  0  0  0
  8  6  1  0  0  0  0
  8 11  1  0  0  0  0
  9  6  1  0  0  0  0
 10 13  1  0  0  0  0
 11 14  1  0  0  0  0
 12  9  1  0  0  0  0
 14 12  1  0  0  0  0
 14 15  1  0  0  0  0
 15 16  1  0  0  0  0
 15 17  1  0  0  0  0
 18  2  1  0  0  0  0
 18 23  2  0  0  0  0
 19  1  1  0  0  0  0
 19 18  1  0  0  0  0
 20 19  2  0  0  0  0
 21  3  1  0  0  0  0
 21 20  1  0  0  0  0
 22 21  2  0  0  0  0
 22 23  1  0  0  0  0
M  END
>  <CHROM.1>
-149.88565552,97.98532005,-75.92687952,-142.68658408,-163.35790587,98.30869849
-143.05222853,-165.67427924,-158.04748704,153.73038048,95.79829128,-7.83878885
0.10789172,-13.40363425,0.52762343,0.31703226,-0.50402328

>  <Name>
1uui_lig

>  <RI>
0

>  <Rbt.Current_Directory>
/home/itssahil/PROJECTS/Mol_Feturizer/New_Systems/rnas/1uui

>  <Rbt.Executable>
rbdock ($Id: //depot/dev/client3/rdock/2013.1/src/exe/rbdock.cxx#4 $)

>  <Rbt.Library>
libRbt.so (2013.1, Build901 2013/11/27)

>  <Rbt.Parameter_File>
/export/apps/rDock/src/rDock_2013.1_src/data/scripts/dock_solv.prm

>  <Rbt.Receptor>
prm/blind_docking_20.prm

>  <SCORE>
-6.72264

>  <SCORE.INTER>
-13.39

>  <SCORE.INTER.CONST>
1

>  <SCORE.INTER.POLAR>
-0.485383

>  <SCORE.INTER.ROT>
10

>  <SCORE.INTER.SOLV>
12.7677

>  <SCORE.INTER.VDW>
-21.8313

>  <SCORE.INTER.norm>
-0.582176

>  <SCORE.INTRA>
0.108992

>  <SCORE.INTRA.DIHEDRAL>
-0.985828

>  <SCORE.INTRA.DIHEDRAL.0>
23.4151

>  <SCORE.INTRA.POLAR>
0

>  <SCORE.INTRA.POLAR.0>
0

>  <SCORE.INTRA.REPUL>
0.0123595

>  <SCORE.INTRA.REPUL.0>
0

>  <SCORE.INTRA.SOLV>
0.161475

>  <SCORE.INTRA.SOLV.lig_0>
-17.3568

>  <SCORE.INTRA.VDW>
0.459371

>  <SCORE.INTRA.VDW.0>
1.0768

>  <SCORE.INTRA.norm>
0.00473877

>  <SCORE.RESTR>
6.55842

>  <SCORE.RESTR.CAVITY>
6.55842

>  <SCORE.RESTR.norm>
0.285148

>  <SCORE.SYSTEM>
0

>  <SCORE.SYSTEM.CONST>
0

>  <SCORE.SYSTEM.DIHEDRAL>
0

>  <SCORE.SYSTEM.SOLV>
0

>  <SCORE.SYSTEM.norm>
0

>  <SCORE.heavy>
23

>  <SCORE.norm>
-0.292289

>  <RMSD>
16.598

$$$$
1uui_lig
 OpenBabel11021811413D
libRbt.so/2013.1/901 2013/11/27
 23 24  0  0  0  0  0  0  0  0999 V2000
   -6.4471    0.3894  -13.2506 C   0  0  0  0  0  0  0  0  0  0  0  0
   -7.3904   -1.9267  -11.7683 O   0  0  0  0  0  0  0  0  0  0  0  0
  -11.2583    1.8919  -13.4891 O   0  0  0  0  0  0  0  0  0  0  0  0
   -7.5580   -2.1930  -10.3701 C   0  0  0  0  0  0  0  0  0  0  0  0
  -12.3215    1.2224  -14.1713 C   0  0  0  0  0  0  0  0  0  0  0  0
   -6.0862   -0.3198  -14.5219 N   0  0  0  0  0  0  0  0  0  0  0  0
   -7.0410   -3.5994  -10.0636 C   0  0  0  0  0  0  0  0  0  0  0  0
   -4.6555   -0.1061  -14.8713 C   0  0  0  0  0  0  0  0  0  0  0  0
   -6.9448    0.1362  -15.6467 C   0  0  0  0  0  0  0  0  0  0  0  0
   -7.5586   -4.5878  -11.1135 C   0  0  0  0  0  0  0  0  0  0  0  0
   -4.3336    1.3816  -15.0927 C   0  0  0  0  0  0  0  0  0  0  0  0
   -6.8027    1.6481  -15.8919 C   0  0  0  0  0  0  0  0  0  0  0  0
   -9.0268   -4.4508  -11.2394 N   0  0  0  0  0  0  0  0  0  0  0  0
   -5.5712    2.2077  -15.2528 N   0  0  0  0  0  0  0  0  0  0  0  0
   -5.4939    3.5952  -15.0307 C   0  0  0  0  0  0  0  0  0  0  0  0
   -5.7658    4.1208  -13.8024 N   0  0  0  0  0  0  0  0  0  0  0  0
   -5.2779    4.4550  -16.0669 N   0  0  0  0  0  0  0  0  0  0  0  0
   -8.3595   -0.9692  -12.2044 C   0  0  0  0  0  0  0  0  0  0  0  0
   -7.9457    0.1800  -12.9320 C   0  0  0  0  0  0  0  0  0  0  0  0
   -8.9126    1.1318  -13.3597 C   0  0  0  0  0  0  0  0  0  0  0  0
  -10.2877    0.9329  -13.0598 C   0  0  0  0  0  0  0  0  0  0  0  0
  -10.6979   -0.2163  -12.3343 C   0  0  0  0  0  0  0  0  0  0  0  0
   -9.7337   -1.1663  -11.9059 C   0  0  0  0  0  0  0  0  0  0  0  0
  2  4  1  0  0  0  0
  3  5  1  0  0  0  0
  4  7  1  0  0  0  0
  6  1  1  0  0  0  0
  7 10  1  0  0  0  0
  8  6  1  0  0  0  0
  8 11  1  0  0  0  0
  9  6  1  0  0  0  0
 10 13  1  0  0  0  0
 11 14  1  0  0  0  0
 12  9  1  0  0  0  0
 14 12  1  0  0  0  0
 14 15  1  0  0  0  0
 15 16  1  0  0  0  0
 15 17  1  0  0  0  0
 18  2  1  0  0  0  0
 18 23  2  0  0  0  0
 19  1  1  0  0  0  0
 19 18  1  0  0  0  0
 20 19  2  0  0  0  0
 21  3  1  0  0  0  0
 21 20  1  0  0  0  0
 22 21  2  0  0  0  0
 22 23  1  0  0  0  0
M  END
>  <CHROM.1>
153.36137832,-45.64354829,178.55286770,-51.49508150,-8.37999368,-92.66157821
20.09363270,51.39715014,129.01217018,86.53135811,129.32899869,-7.61419538
0.16489769,-13.37727202,-1.17107079,-0.16835199,2.60372507

>  <Name>
1uui_lig

>  <RI>
0

>  <Rbt.Current_Directory>
/home/itssahil/PROJECTS/Mol_Feturizer/New_Systems/rnas/1uui

>  <Rbt.Executable>
rbdock ($Id: //depot/dev/client3/rdock/2013.1/src/exe/rbdock.cxx#4 $)

>  <Rbt.Library>
libRbt.so (2013.1, Build901 2013/11/27)

>  <Rbt.Parameter_File>
/export/apps/rDock/src/rDock_2013.1_src/data/scripts/dock_solv.prm

>  <Rbt.Receptor>
prm/blind_docking_20.prm

>  <SCORE>
-12.0811

>  <SCORE.INTER>
-17.1411

>  <SCORE.INTER.CONST>
1

>  <SCORE.INTER.POLAR>
-1.56518

>  <SCORE.INTER.ROT>
10

>  <SCORE.INTER.SOLV>
12.0787

>  <SCORE.INTER.VDW>
-20.503

>  <SCORE.INTER.norm>
-0.745263

>  <SCORE.INTRA>
-1.24549

>  <SCORE.INTRA.DIHEDRAL>
-6.01194

>  <SCORE.INTRA.DIHEDRAL.0>
23.4151

>  <SCORE.INTRA.POLAR>
0

>  <SCORE.INTRA.POLAR.0>
0

>  <SCORE.INTRA.REPUL>
0

>  <SCORE.INTRA.REPUL.0>
0

>  <SCORE.INTRA.SOLV>
0.82445

>  <SCORE.INTRA.SOLV.lig_0>
-17.3568

>  <SCORE.INTRA.VDW>
1.34825

>  <SCORE.INTRA.VDW.0>
1.0768

>  <SCORE.INTRA.norm>
-0.0541518

>  <SCORE.RESTR>
6.30542

>  <SCORE.RESTR.CAVITY>
6.30542

>  <SCORE.RESTR.norm>
0.274149

>  <SCORE.SYSTEM>
0

>  <SCORE.SYSTEM.CONST>
0

>  <SCORE.SYSTEM.DIHEDRAL>
0

>  <SCORE.SYSTEM.SOLV>
0

>  <SCORE.SYSTEM.norm>
0

>  <SCORE.heavy>
23

>  <SCORE.norm>
-0.525266

>  <RMSD>
16.641

$$$$
1uui_lig
 OpenBabel11021811413D
libRbt.so/2013.1/901 2013/11/27
 23 24  0  0  0  0  0  0  0  0999 V2000
   -6.1194   -0.2193  -13.6795 C   0  0  0  0  0  0  0  0  0  0  0  0
   -7.0529   -2.9253  -13.1719 O   0  0  0  0  0  0  0  0  0  0  0  0
  -10.7422    1.3537  -12.4079 O   0  0  0  0  0  0  0  0  0  0  0  0
   -7.5998   -4.1410  -12.6457 C   0  0  0  0  0  0  0  0  0  0  0  0
  -10.1397    2.3616  -11.5924 C   0  0  0  0  0  0  0  0  0  0  0  0
   -5.9792   -0.4951  -15.1471 N   0  0  0  0  0  0  0  0  0  0  0  0
   -6.6841   -4.6624  -11.5372 C   0  0  0  0  0  0  0  0  0  0  0  0
   -4.6527   -0.0512  -15.6552 C   0  0  0  0  0  0  0  0  0  0  0  0
   -7.0566    0.1782  -15.9194 C   0  0  0  0  0  0  0  0  0  0  0  0
   -7.4662   -4.7836  -10.2255 C   0  0  0  0  0  0  0  0  0  0  0  0
   -4.4434    1.4616  -15.4713 C   0  0  0  0  0  0  0  0  0  0  0  0
   -7.0292    1.7033  -15.7201 C   0  0  0  0  0  0  0  0  0  0  0  0
   -6.5728   -5.2977   -9.1634 N   0  0  0  0  0  0  0  0  0  0  0  0
   -5.7229    2.1736  -15.1625 N   0  0  0  0  0  0  0  0  0  0  0  0
   -5.6640    3.4397  -14.5508 C   0  0  0  0  0  0  0  0  0  0  0  0
   -6.3766    3.7006  -13.4181 N   0  0  0  0  0  0  0  0  0  0  0  0
   -5.0022    4.4713  -15.1486 N   0  0  0  0  0  0  0  0  0  0  0  0
   -7.9779   -1.8504  -12.9846 C   0  0  0  0  0  0  0  0  0  0  0  0
   -7.5669   -0.5099  -13.2198 C   0  0  0  0  0  0  0  0  0  0  0  0
   -8.4891    0.5563  -13.0279 C   0  0  0  0  0  0  0  0  0  0  0  0
   -9.8169    0.2803  -12.6022 C   0  0  0  0  0  0  0  0  0  0  0  0
  -10.2247   -1.0594  -12.3694 C   0  0  0  0  0  0  0  0  0  0  0  0
   -9.3049   -2.1241  -12.5595 C   0  0  0  0  0  0  0  0  0  0  0  0
  2  4  1  0  0  0  0
  3  5  1  0  0  0  0
  4  7  1  0  0  0  0
  6  1  1  0  0  0  0
  7 10  1  0  0  0  0
  8  6  1  0  0  0  0
  8 11  1  0  0  0  0
  9  6  1  0  0  0  0
 10 13  1  0  0  0  0
 11 14  1  0  0  0  0
 12  9  1  0  0  0  0
 14 12  1  0  0  0  0
 14 15  1  0  0  0  0
 15 16  1  0  0  0  0
 15 17  1  0  0  0  0
 18  2  1  0  0  0  0
 18 23  2  0  0  0  0
 19  1  1  0  0  0  0
 19 18  1  0  0  0  0
 20 19  2  0  0  0  0
 21  3  1  0  0  0  0
 21 20  1  0  0  0  0
 22 21  2  0  0  0  0
 22 23  1  0  0  0  0
M  END
>  <CHROM.1>
-119.44605485,121.54003603,172.30982378,179.60392456,-29.75082613,-127.94325612
175.15371113,-100.28250961,169.34768184,79.01213884,-49.86822921,-7.25155775
-0.27113425,-13.33757445,-1.33523427,-0.51228808,2.75298601

>  <Name>
1uui_lig

>  <RI>
0

>  <Rbt.Current_Directory>
/home/itssahil/PROJECTS/Mol_Feturizer/New_Systems/rnas/1uui

>  <Rbt.Executable>
rbdock ($Id: //depot/dev/client3/rdock/2013.1/src/exe/rbdock.cxx#4 $)

>  <Rbt.Library>
libRbt.so (2013.1, Build901 2013/11/27)

>  <Rbt.Parameter_File>
/export/apps/rDock/src/rDock_2013.1_src/data/scripts/dock_solv.prm

>  <Rbt.Receptor>
prm/blind_docking_20.prm

>  <SCORE>
-0.763078

>  <SCORE.INTER>
-7.47615

>  <SCORE.INTER.CONST>
1

>  <SCORE.INTER.POLAR>
-1.01252

>  <SCORE.INTER.ROT>
10

>  <SCORE.INTER.SOLV>
13.312

>  <SCORE.INTER.VDW>
-16.313

>  <SCORE.INTER.norm>
-0.32505

>  <SCORE.INTRA>
2.3821

>  <SCORE.INTRA.DIHEDRAL>
-1.39687

>  <SCORE.INTRA.DIHEDRAL.0>
23.4151

>  <SCORE.INTRA.POLAR>
0

>  <SCORE.INTRA.POLAR.0>
0

>  <SCORE.INTRA.REPUL>
0

>  <SCORE.INTRA.REPUL.0>
0

>  <SCORE.INTRA.SOLV>
0.43723

>  <SCORE.INTRA.SOLV.lig_0>
-17.3568

>  <SCORE.INTRA.VDW>
2.86192

>  <SCORE.INTRA.VDW.0>
1.0768

>  <SCORE.INTRA.norm>
0.103569

>  <SCORE.RESTR>
4.33097

>  <SCORE.RESTR.CAVITY>
4.33097

>  <SCORE.RESTR.norm>
0.188303

>  <SCORE.SYSTEM>
0

>  <SCORE.SYSTEM.CONST>
0

>  <SCORE.SYSTEM.DIHEDRAL>
0

>  <SCORE.SYSTEM.SOLV>
0

>  <SCORE.SYSTEM.norm>
0

>  <SCORE.heavy>
23

>  <SCORE.norm>
-0.0331773

>  <RMSD>
16.670

$$$$
1uui_lig
 OpenBabel11021811413D
libRbt.so/2013.1/901 2013/11/27
 23 24  0  0  0  0  0  0  0  0999 V2000
   -6.9928   -1.1311  -13.2095 C   0  0  0  0  0  0  0  0  0  0  0  0
   -9.8112   -0.6361  -12.6964 O   0  0  0  0  0  0  0  0  0  0  0  0
   -7.6463   -5.6516  -11.0649 O   0  0  0  0  0  0  0  0  0  0  0  0
   -9.2983    0.4169  -11.8704 C   0  0  0  0  0  0  0  0  0  0  0  0
   -6.6878   -5.4448  -10.0245 C   0  0  0  0  0  0  0  0  0  0  0  0
   -6.8765   -1.4397  -14.6726 N   0  0  0  0  0  0  0  0  0  0  0  0
   -9.7020    1.7645  -12.4705 C   0  0  0  0  0  0  0  0  0  0  0  0
   -5.5075   -1.1480  -15.1783 C   0  0  0  0  0  0  0  0  0  0  0  0
   -7.8714   -0.6644  -15.4597 C   0  0  0  0  0  0  0  0  0  0  0  0
  -11.2006    2.0034  -12.2604 C   0  0  0  0  0  0  0  0  0  0  0  0
   -5.1372    0.3356  -15.0123 C   0  0  0  0  0  0  0  0  0  0  0  0
   -7.6806    0.8513  -15.2795 C   0  0  0  0  0  0  0  0  0  0  0  0
  -11.9589    0.8186  -12.7205 N   0  0  0  0  0  0  0  0  0  0  0  0
   -6.3339    1.1854  -14.7201 N   0  0  0  0  0  0  0  0  0  0  0  0
   -6.1415    2.4457  -14.1241 C   0  0  0  0  0  0  0  0  0  0  0  0
   -7.2070    3.2158  -13.7626 N   0  0  0  0  0  0  0  0  0  0  0  0
   -4.8923    2.9821  -14.0180 N   0  0  0  0  0  0  0  0  0  0  0  0
   -9.2649   -1.8923  -12.2844 C   0  0  0  0  0  0  0  0  0  0  0  0
   -7.8918   -2.1800  -12.5147 C   0  0  0  0  0  0  0  0  0  0  0  0
   -7.3540   -3.4325  -12.1074 C   0  0  0  0  0  0  0  0  0  0  0  0
   -8.1883   -4.3921  -11.4722 C   0  0  0  0  0  0  0  0  0  0  0  0
   -9.5587   -4.1013  -11.2424 C   0  0  0  0  0  0  0  0  0  0  0  0
  -10.0968   -2.8521  -11.6495 C   0  0  0  0  0  0  0  0  0  0  0  0
  2  4  1  0  0  0  0
  3  5  1  0  0  0  0
  4  7  1  0  0  0  0
  6  1  1  0  0  0  0
  7 10  1  0  0  0  0
  8  6  1  0  0  0  0
  8 11  1  0  0  0  0
  9  6  1  0  0  0  0
 10 13  1  0  0  0  0
 11 14  1  0  0  0  0
 12  9  1  0  0  0  0
 14 12  1  0  0  0  0
 14 15  1  0  0  0  0
 15 16  1  0  0  0  0
 15 17  1  0  0  0  0
 18  2  1  0  0  0  0
 18 23  2  0  0  0  0
 19  1  1  0  0  0  0
 19 18  1  0  0  0  0
 20 19  2  0  0  0  0
 21  3  1  0  0  0  0
 21 20  1  0  0  0  0
 22 21  2  0  0  0  0
 22 23  1  0  0  0  0
M  END
>  <CHROM.1>
170.46691909,72.42661970,-142.65400406,-50.60727677,-130.21178614,-175.78123996
137.83703213,-81.00836505,-70.25717070,-97.31245419,65.96177013,-7.97382058
-0.75617897,-13.05176789,-1.76053232,0.39400671,-0.36424649

>  <Name>
1uui_lig

>  <RI>
0

>  <Rbt.Current_Directory>
/home/itssahil/PROJECTS/Mol_Feturizer/New_Systems/rnas/1uui

>  <Rbt.Executable>
rbdock ($Id: //depot/dev/client3/rdock/2013.1/src/exe/rbdock.cxx#4 $)

>  <Rbt.Library>
libRbt.so (2013.1, Build901 2013/11/27)

>  <Rbt.Parameter_File>
/export/apps/rDock/src/rDock_2013.1_src/data/scripts/dock_solv.prm

>  <Rbt.Receptor>
prm/blind_docking_20.prm

>  <SCORE>
-13.9521

>  <SCORE.INTER>
-16.0358

>  <SCORE.INTER.CONST>
1

>  <SCORE.INTER.POLAR>
-2.60506

>  <SCORE.INTER.ROT>
10

>  <SCORE.INTER.SOLV>
12.634

>  <SCORE.INTER.VDW>
-16.485

>  <SCORE.INTER.norm>
-0.697209

>  <SCORE.INTRA>
-4.12731

>  <SCORE.INTRA.DIHEDRAL>
-3.72213

>  <SCORE.INTRA.DIHEDRAL.0>
23.4151

>  <SCORE.INTRA.POLAR>
-0.611998

>  <SCORE.INTRA.POLAR.0>
0

>  <SCORE.INTRA.REPUL>
0

>  <SCORE.INTRA.REPUL.0>
0

>  <SCORE.INTRA.SOLV>
1.27806

>  <SCORE.INTRA.SOLV.lig_0>
-17.3568

>  <SCORE.INTRA.VDW>
-0.824482

>  <SCORE.INTRA.VDW.0>
1.0768

>  <SCORE.INTRA.norm>
-0.179448

>  <SCORE.RESTR>
6.211

>  <SCORE.RESTR.CAVITY>
6.211

>  <SCORE.RESTR.norm>
0.270043

>  <SCORE.SYSTEM>
0

>  <SCORE.SYSTEM.CONST>
0

>  <SCORE.SYSTEM.DIHEDRAL>
0

>  <SCORE.SYSTEM.SOLV>
0

>  <SCORE.SYSTEM.norm>
0

>  <SCORE.heavy>
23

>  <SCORE.norm>
-0.606614

>  <RMSD>
16.714

$$$$
1uui_lig
 OpenBabel11021811413D
libRbt.so/2013.1/901 2013/11/27
 23 24  0  0  0  0  0  0  0  0999 V2000
   -7.3390   -0.4994  -14.0799 C   0  0  0  0  0  0  0  0  0  0  0  0
   -7.6813    0.6019  -11.4113 O   0  0  0  0  0  0  0  0  0  0  0  0
   -7.4533   -5.0697  -11.9444 O   0  0  0  0  0  0  0  0  0  0  0  0
   -8.9648    0.9922  -10.9072 C   0  0  0  0  0  0  0  0  0  0  0  0
   -6.5173   -5.6018  -11.0038 C   0  0  0  0  0  0  0  0  0  0  0  0
   -6.0542   -0.7770  -14.8022 N   0  0  0  0  0  0  0  0  0  0  0  0
   -9.5745    2.0347  -11.8456 C   0  0  0  0  0  0  0  0  0  0  0  0
   -4.8814   -0.3023  -14.0186 C   0  0  0  0  0  0  0  0  0  0  0  0
   -6.0484   -0.1333  -16.1423 C   0  0  0  0  0  0  0  0  0  0  0  0
  -10.1218    1.3512  -13.1028 C   0  0  0  0  0  0  0  0  0  0  0  0
   -4.9286    1.2158  -13.7754 C   0  0  0  0  0  0  0  0  0  0  0  0
   -6.2129    1.3927  -16.0394 C   0  0  0  0  0  0  0  0  0  0  0  0
  -11.4799    0.8300  -12.8301 N   0  0  0  0  0  0  0  0  0  0  0  0
   -5.9243    1.8971  -14.6608 N   0  0  0  0  0  0  0  0  0  0  0  0
   -6.4052    3.1665  -14.2894 C   0  0  0  0  0  0  0  0  0  0  0  0
   -5.6162    4.2724  -14.4057 N   0  0  0  0  0  0  0  0  0  0  0  0
   -7.6182    3.3007  -13.6811 N   0  0  0  0  0  0  0  0  0  0  0  0
   -7.6199   -0.8207  -11.5471 C   0  0  0  0  0  0  0  0  0  0  0  0
   -7.4541   -1.4056  -12.8323 C   0  0  0  0  0  0  0  0  0  0  0  0
   -7.3982   -2.8211  -12.9629 C   0  0  0  0  0  0  0  0  0  0  0  0
   -7.5079   -3.6466  -11.8110 C   0  0  0  0  0  0  0  0  0  0  0  0
   -7.6722   -3.0596  -10.5289 C   0  0  0  0  0  0  0  0  0  0  0  0
   -7.7292   -1.6471  -10.3974 C   0  0  0  0  0  0  0  0  0  0  0  0
  2  4  1  0  0  0  0
  3  5  1  0  0  0  0
  4  7  1  0  0  0  0
  6  1  1  0  0  0  0
  7 10  1  0  0  0  0
  8  6  1  0  0  0  0
  8 11  1  0  0  0  0
  9  6  1  0  0  0  0
 10 13  1  0  0  0  0
 11 14  1  0  0  0  0
 12  9  1  0  0  0  0
 14 12  1  0  0  0  0
 14 15  1  0  0  0  0
 15 16  1  0  0  0  0
 15 17  1  0  0  0  0
 18  2  1  0  0  0  0
 18 23  2  0  0  0  0
 19  1  1  0  0  0  0
 19 18  1  0  0  0  0
 20 19  2  0  0  0  0
 21  3  1  0  0  0  0
 21 20  1  0  0  0  0
 22 21  2  0  0  0  0
 22 23  1  0  0  0  0
M  END
>  <CHROM.1>
-126.23175362,76.85694853,-69.68049798,83.43507437,-30.85004614,73.67327941
164.33695569,-59.85134874,116.51101621,122.72227537,130.65525555,-7.33978547
-0.14823102,-13.02322499,-1.45596250,-0.61586967,2.79164114

>  <Name>
1uui_lig

>  <RI>
0

>  <Rbt.Current_Directory>
/home/itssahil/PROJECTS/Mol_Feturizer/New_Systems/rnas/1uui

>  <Rbt.Executable>
rbdock ($Id: //depot/dev/client3/rdock/2013.1/src/exe/rbdock.cxx#4 $)

>  <Rbt.Library>
libRbt.so (2013.1, Build901 2013/11/27)

>  <Rbt.Parameter_File>
/export/apps/rDock/src/rDock_2013.1_src/data/scripts/dock_solv.prm

>  <Rbt.Receptor>
prm/blind_docking_20.prm

>  <SCORE>
-20.7246

>  <SCORE.INTER>
-24.7947

>  <SCORE.INTER.CONST>
1

>  <SCORE.INTER.POLAR>
-3.29279

>  <SCORE.INTER.ROT>
10

>  <SCORE.INTER.SOLV>
14.1325

>  <SCORE.INTER.VDW>
-20.5313

>  <SCORE.INTER.norm>
-1.07803

>  <SCORE.INTRA>
-0.0680199

>  <SCORE.INTRA.DIHEDRAL>
-0.560569

>  <SCORE.INTRA.DIHEDRAL.0>
23.4151

>  <SCORE.INTRA.POLAR>
0

>  <SCORE.INTRA.POLAR.0>
0

>  <SCORE.INTRA.REPUL>
0.334024

>  <SCORE.INTRA.REPUL.0>
0

>  <SCORE.INTRA.SOLV>
1.19198

>  <SCORE.INTRA.SOLV.lig_0>
-17.3568

>  <SCORE.INTRA.VDW>
-2.05385

>  <SCORE.INTRA.VDW.0>
1.0768

>  <SCORE.INTRA.norm>
-0.00295739

>  <SCORE.RESTR>
4.13804

>  <SCORE.RESTR.CAVITY>
4.13804

>  <SCORE.RESTR.norm>
0.179915

>  <SCORE.SYSTEM>
0

>  <SCORE.SYSTEM.CONST>
0

>  <SCORE.SYSTEM.DIHEDRAL>
0

>  <SCORE.SYSTEM.SOLV>
0

>  <SCORE.SYSTEM.norm>
0

>  <SCORE.heavy>
23

>  <SCORE.norm>
-0.901071

>  <RMSD>
16.732

$$$$
1uui_lig
 OpenBabel11021811413D
libRbt.so/2013.1/901 2013/11/27
 23 24  0  0  0  0  0  0  0  0999 V2000
   -7.2704   -1.5677  -13.1864 C   0  0  0  0  0  0  0  0  0  0  0  0
  -10.1408   -1.9566  -12.9401 O   0  0  0  0  0  0  0  0  0  0  0  0
   -6.7118   -5.7487  -10.4172 O   0  0  0  0  0  0  0  0  0  0  0  0
  -10.1446   -0.7264  -12.2049 C   0  0  0  0  0  0  0  0  0  0  0  0
   -7.0672   -7.0669  -10.8418 C   0  0  0  0  0  0  0  0  0  0  0  0
   -7.1695   -1.9131  -14.6424 N   0  0  0  0  0  0  0  0  0  0  0  0
  -11.0115    0.2945  -12.9433 C   0  0  0  0  0  0  0  0  0  0  0  0
   -5.8703   -1.4662  -15.2141 C   0  0  0  0  0  0  0  0  0  0  0  0
   -8.2859   -1.3029  -15.4117 C   0  0  0  0  0  0  0  0  0  0  0  0
  -10.2528    1.6174  -13.0898 C   0  0  0  0  0  0  0  0  0  0  0  0
   -5.6908    0.0580  -15.1117 C   0  0  0  0  0  0  0  0  0  0  0  0
   -8.2880    0.2304  -15.2885 C   0  0  0  0  0  0  0  0  0  0  0  0
  -10.0859    2.2411  -11.7580 N   0  0  0  0  0  0  0  0  0  0  0  0
   -6.9765    0.7564  -14.7971 N   0  0  0  0  0  0  0  0  0  0  0  0
   -6.9282    2.0524  -14.2506 C   0  0  0  0  0  0  0  0  0  0  0  0
   -6.2714    3.0574  -14.8968 N   0  0  0  0  0  0  0  0  0  0  0  0
   -7.4193    2.3004  -13.0028 N   0  0  0  0  0  0  0  0  0  0  0  0
   -9.2785   -2.9047  -12.3047 C   0  0  0  0  0  0  0  0  0  0  0  0
   -7.8677   -2.7564  -12.3981 C   0  0  0  0  0  0  0  0  0  0  0  0
   -7.0140   -3.7043  -11.7682 C   0  0  0  0  0  0  0  0  0  0  0  0
   -7.5716   -4.7956  -11.0482 C   0  0  0  0  0  0  0  0  0  0  0  0
   -8.9808   -4.9402  -10.9557 C   0  0  0  0  0  0  0  0  0  0  0  0
   -9.8337   -3.9955  -11.5848 C   0  0  0  0  0  0  0  0  0  0  0  0
  2  4  1  0  0  0  0
  3  5  1  0  0  0  0
  4  7  1  0  0  0  0
  6  1  1  0  0  0  0
  7 10  1  0  0  0  0
  8  6  1  0  0  0  0
  8 11  1  0  0  0  0
  9  6  1  0  0  0  0
 10 13  1  0  0  0  0
 11 14  1  0  0  0  0
 12  9  1  0  0  0  0
 14 12  1  0  0  0  0
 14 15  1  0  0  0  0
 15 16  1  0  0  0  0
 15 17  1  0  0  0  0
 18  2  1  0  0  0  0
 18 23  2  0  0  0  0
 19  1  1  0  0  0  0
 19 18  1  0  0  0  0
 20 19  2  0  0  0  0
 21  3  1  0  0  0  0
 21 20  1  0  0  0  0
 22 21  2  0  0  0  0
 22 23  1  0  0  0  0
M  END
>  <CHROM.1>
176.94210650,-130.69876966,-136.92723535,-68.05392130,10.72059497,56.47814551
-99.40681896,-175.54063155,-73.98005966,-85.46790257,-126.71621283,-8.08941755
-1.31172055,-13.05475435,-1.57021265,0.52493045,-0.40079916

>  <Name>
1uui_lig

>  <RI>
0

>  <Rbt.Current_Directory>
/home/itssahil/PROJECTS/Mol_Feturizer/New_Systems/rnas/1uui

>  <Rbt.Executable>
rbdock ($Id: //depot/dev/client3/rdock/2013.1/src/exe/rbdock.cxx#4 $)

>  <Rbt.Library>
libRbt.so (2013.1, Build901 2013/11/27)

>  <Rbt.Parameter_File>
/export/apps/rDock/src/rDock_2013.1_src/data/scripts/dock_solv.prm

>  <Rbt.Receptor>
prm/blind_docking_20.prm

>  <SCORE>
-4.27743

>  <SCORE.INTER>
-10.6229

>  <SCORE.INTER.CONST>
1

>  <SCORE.INTER.POLAR>
-3.05395

>  <SCORE.INTER.ROT>
10

>  <SCORE.INTER.SOLV>
11.0238

>  <SCORE.INTER.VDW>
-10.8433

>  <SCORE.INTER.norm>
-0.461863

>  <SCORE.INTRA>
-2.46285

>  <SCORE.INTRA.DIHEDRAL>
0.00302595

>  <SCORE.INTRA.DIHEDRAL.0>
23.4151

>  <SCORE.INTRA.POLAR>
-0.583206

>  <SCORE.INTRA.POLAR.0>
0

>  <SCORE.INTRA.REPUL>
0

>  <SCORE.INTRA.REPUL.0>
0

>  <SCORE.INTRA.SOLV>
1.81206

>  <SCORE.INTRA.SOLV.lig_0>
-17.3568

>  <SCORE.INTRA.VDW>
-1.38749

>  <SCORE.INTRA.VDW.0>
1.0768

>  <SCORE.INTRA.norm>
-0.10708

>  <SCORE.RESTR>
8.80827

>  <SCORE.RESTR.CAVITY>
8.80827

>  <SCORE.RESTR.norm>
0.382968

>  <SCORE.SYSTEM>
0

>  <SCORE.SYSTEM.CONST>
0

>  <SCORE.SYSTEM.DIHEDRAL>
0

>  <SCORE.SYSTEM.SOLV>
0

>  <SCORE.SYSTEM.norm>
0

>  <SCORE.heavy>
23

>  <SCORE.norm>
-0.185975

>  <RMSD>
16.733

$$$$
1uui_lig
 OpenBabel11021811413D
libRbt.so/2013.1/901 2013/11/27
 23 24  0  0  0  0  0  0  0  0999 V2000
   -7.0349    0.0455  -13.6076 C   0  0  0  0  0  0  0  0  0  0  0  0
   -9.9363    0.2276  -13.5967 O   0  0  0  0  0  0  0  0  0  0  0  0
   -7.5571   -4.5274  -11.5392 O   0  0  0  0  0  0  0  0  0  0  0  0
  -10.2540    1.1249  -12.5253 C   0  0  0  0  0  0  0  0  0  0  0  0
   -7.0733   -4.2877  -10.2154 C   0  0  0  0  0  0  0  0  0  0  0  0
   -6.1037   -0.4806  -14.6590 N   0  0  0  0  0  0  0  0  0  0  0  0
   -8.9583    1.7157  -11.9673 C   0  0  0  0  0  0  0  0  0  0  0  0
   -4.6930   -0.1082  -14.3655 C   0  0  0  0  0  0  0  0  0  0  0  0
   -6.4807    0.0271  -16.0046 C   0  0  0  0  0  0  0  0  0  0  0  0
   -8.7746    1.2895  -10.5073 C   0  0  0  0  0  0  0  0  0  0  0  0
   -4.4965    1.4169  -14.3290 C   0  0  0  0  0  0  0  0  0  0  0  0
   -6.4402    1.5637  -16.0630 C   0  0  0  0  0  0  0  0  0  0  0  0
   -8.0574   -0.0041  -10.4570 N   0  0  0  0  0  0  0  0  0  0  0  0
   -5.6544    2.1484  -14.9320 N   0  0  0  0  0  0  0  0  0  0  0  0
   -5.8470    3.5029  -14.6023 C   0  0  0  0  0  0  0  0  0  0  0  0
   -6.4065    3.8576  -13.4107 N   0  0  0  0  0  0  0  0  0  0  0  0
   -5.6039    4.4836  -15.5182 N   0  0  0  0  0  0  0  0  0  0  0  0
   -9.3370   -0.9629  -13.0774 C   0  0  0  0  0  0  0  0  0  0  0  0
   -7.9218   -1.0980  -13.0626 C   0  0  0  0  0  0  0  0  0  0  0  0
   -7.3304   -2.2858  -12.5493 C   0  0  0  0  0  0  0  0  0  0  0  0
   -8.1534   -3.3331  -12.0532 C   0  0  0  0  0  0  0  0  0  0  0  0
   -9.5662   -3.1947  -12.0682 C   0  0  0  0  0  0  0  0  0  0  0  0
  -10.1575   -2.0103  -12.5812 C   0  0  0  0  0  0  0  0  0  0  0  0
  2  4  1  0  0  0  0
  3  5  1  0  0  0  0
  4  7  1  0  0  0  0
  6  1  1  0  0  0  0
  7 10  1  0  0  0  0
  8  6  1  0  0  0  0
  8 11  1  0  0  0  0
  9  6  1  0  0  0  0
 10 13  1  0  0  0  0
 11 14  1  0  0  0  0
 12  9  1  0  0  0  0
 14 12  1  0  0  0  0
 14 15  1  0  0  0  0
 15 16  1  0  0  0  0
 15 17  1  0  0  0  0
 18  2  1  0  0  0  0
 18 23  2  0  0  0  0
 19  1  1  0  0  0  0
 19 18  1  0  0  0  0
 20 19  2  0  0  0  0
 21  3  1  0  0  0  0
 21 20  1  0  0  0  0
 22 21  2  0  0  0  0
 22 23  1  0  0  0  0
M  END
>  <CHROM.1>
71.76393319,-116.76284013,-127.64493158,88.14039656,-72.77466985,-78.20904360
148.29919749,-144.29475532,-97.13768303,-125.50147575,78.49240168,-7.44025242
0.01467105,-13.19267765,-1.09752850,-0.62997654,2.90999496

>  <Name>
1uui_lig

>  <RI>
0

>  <Rbt.Current_Directory>
/home/itssahil/PROJECTS/Mol_Feturizer/New_Systems/rnas/1uui

>  <Rbt.Executable>
rbdock ($Id: //depot/dev/client3/rdock/2013.1/src/exe/rbdock.cxx#4 $)

>  <Rbt.Library>
libRbt.so (2013.1, Build901 2013/11/27)

>  <Rbt.Parameter_File>
/export/apps/rDock/src/rDock_2013.1_src/data/scripts/dock_solv.prm

>  <Rbt.Receptor>
prm/blind_docking_20.prm

>  <SCORE>
-14.611

>  <SCORE.INTER>
-17.0916

>  <SCORE.INTER.CONST>
1

>  <SCORE.INTER.POLAR>
-0.495692

>  <SCORE.INTER.ROT>
10

>  <SCORE.INTER.SOLV>
12.4723

>  <SCORE.INTER.VDW>
-24.1662

>  <SCORE.INTER.norm>
-0.743115

>  <SCORE.INTRA>
-0.945402

>  <SCORE.INTRA.DIHEDRAL>
2.61014

>  <SCORE.INTRA.DIHEDRAL.0>
23.4151

>  <SCORE.INTRA.POLAR>
0

>  <SCORE.INTRA.POLAR.0>
0

>  <SCORE.INTRA.REPUL>
0

>  <SCORE.INTRA.REPUL.0>
0

>  <SCORE.INTRA.SOLV>
1.11923

>  <SCORE.INTRA.SOLV.lig_0>
-17.3568

>  <SCORE.INTRA.VDW>
-2.81009

>  <SCORE.INTRA.VDW.0>
1.0768

>  <SCORE.INTRA.norm>
-0.0411044

>  <SCORE.RESTR>
3.42601

>  <SCORE.RESTR.CAVITY>
3.42601

>  <SCORE.RESTR.norm>
0.148957

>  <SCORE.SYSTEM>
0

>  <SCORE.SYSTEM.CONST>
0

>  <SCORE.SYSTEM.DIHEDRAL>
0

>  <SCORE.SYSTEM.SOLV>
0

>  <SCORE.SYSTEM.norm>
0

>  <SCORE.heavy>
23

>  <SCORE.norm>
-0.635262

>  <RMSD>
16.791

$$$$
1uui_lig
 OpenBabel11021811413D
libRbt.so/2013.1/901 2013/11/27
 23 24  0  0  0  0  0  0  0  0999 V2000
   -6.9845   -0.6215  -13.2319 C   0  0  0  0  0  0  0  0  0  0  0  0
   -9.8506   -0.3145  -12.8546 O   0  0  0  0  0  0  0  0  0  0  0  0
   -7.4948   -5.3065  -11.4285 O   0  0  0  0  0  0  0  0  0  0  0  0
   -9.4650    0.7004  -11.9189 C   0  0  0  0  0  0  0  0  0  0  0  0
   -6.8188   -5.1774  -10.1754 C   0  0  0  0  0  0  0  0  0  0  0  0
   -6.3470   -1.0548  -14.5185 N   0  0  0  0  0  0  0  0  0  0  0  0
  -10.2564    1.9762  -12.2109 C   0  0  0  0  0  0  0  0  0  0  0  0
   -4.9462   -0.5625  -14.6191 C   0  0  0  0  0  0  0  0  0  0  0  0
   -7.1278   -0.5708  -15.6875 C   0  0  0  0  0  0  0  0  0  0  0  0
  -11.7267    1.6325  -12.4703 C   0  0  0  0  0  0  0  0  0  0  0  0
   -4.8729    0.9736  -14.5890 C   0  0  0  0  0  0  0  0  0  0  0  0
   -7.2313    0.9639  -15.7044 C   0  0  0  0  0  0  0  0  0  0  0  0
  -12.5768    2.7843  -12.0944 N   0  0  0  0  0  0  0  0  0  0  0  0
   -6.2096    1.6057  -14.8198 N   0  0  0  0  0  0  0  0  0  0  0  0
   -6.4118    2.9352  -14.4051 C   0  0  0  0  0  0  0  0  0  0  0  0
   -5.4472    3.8796  -14.5968 N   0  0  0  0  0  0  0  0  0  0  0  0
   -7.5170    3.2791  -13.6841 N   0  0  0  0  0  0  0  0  0  0  0  0
   -9.2567   -1.5648  -12.4939 C   0  0  0  0  0  0  0  0  0  0  0  0
   -7.8587   -1.7621  -12.6611 C   0  0  0  0  0  0  0  0  0  0  0  0
   -7.2733   -3.0089  -12.3052 C   0  0  0  0  0  0  0  0  0  0  0  0
   -8.0849   -4.0529  -11.7841 C   0  0  0  0  0  0  0  0  0  0  0  0
   -9.4804   -3.8524  -11.6171 C   0  0  0  0  0  0  0  0  0  0  0  0
  -10.0659   -2.6089  -11.9730 C   0  0  0  0  0  0  0  0  0  0  0  0
  2  4  1  0  0  0  0
  3  5  1  0  0  0  0
  4  7  1  0  0  0  0
  6  1  1  0  0  0  0
  7 10  1  0  0  0  0
  8  6  1  0  0  0  0
  8 11  1  0  0  0  0
  9  6  1  0  0  0  0
 10 13  1  0  0  0  0
 11 14  1  0  0  0  0
 12  9  1  0  0  0  0
 14 12  1  0  0  0  0
 14 15  1  0  0  0  0
 15 16  1  0  0  0  0
 15 17  1  0  0  0  0
 18  2  1  0  0  0  0
 18 23  2  0  0  0  0
 19  1  1  0  0  0  0
 19 18  1  0  0  0  0
 20 19  2  0  0  0  0
 21  3  1  0  0  0  0
 21 20  1  0  0  0  0
 22 21  2  0  0  0  0
 22 23  1  0  0  0  0
M  END
>  <CHROM.1>
-172.42061125,43.96451086,-140.62231745,152.21738551,-33.10844927,41.48852069
-56.92679089,-55.68947002,-71.30815831,-118.43929694,77.14755898,-7.98408174
-0.33497587,-13.12963717,-1.66540252,0.42178048,-0.33851755

>  <Name>
1uui_lig

>  <RI>
0

>  <Rbt.Current_Directory>
/home/itssahil/PROJECTS/Mol_Feturizer/New_Systems/rnas/1uui

>  <Rbt.Executable>
rbdock ($Id: //depot/dev/client3/rdock/2013.1/src/exe/rbdock.cxx#4 $)

>  <Rbt.Library>
libRbt.so (2013.1, Build901 2013/11/27)

>  <Rbt.Parameter_File>
/export/apps/rDock/src/rDock_2013.1_src/data/scripts/dock_solv.prm

>  <Rbt.Receptor>
prm/blind_docking_20.prm

>  <SCORE>
-13.5811

>  <SCORE.INTER>
-15.5927

>  <SCORE.INTER.CONST>
1

>  <SCORE.INTER.POLAR>
-2.55008

>  <SCORE.INTER.ROT>
10

>  <SCORE.INTER.SOLV>
13.0744

>  <SCORE.INTER.VDW>
-16.5197

>  <SCORE.INTER.norm>
-0.677945

>  <SCORE.INTRA>
-3.20135

>  <SCORE.INTRA.DIHEDRAL>
-2.58347

>  <SCORE.INTRA.DIHEDRAL.0>
23.4151

>  <SCORE.INTRA.POLAR>
0

>  <SCORE.INTRA.POLAR.0>
0

>  <SCORE.INTRA.REPUL>
0

>  <SCORE.INTRA.REPUL.0>
0

>  <SCORE.INTRA.SOLV>
0.5036

>  <SCORE.INTRA.SOLV.lig_0>
-17.3568

>  <SCORE.INTRA.VDW>
-2.16141

>  <SCORE.INTRA.VDW.0>
1.0768

>  <SCORE.INTRA.norm>
-0.139189

>  <SCORE.RESTR>
5.21297

>  <SCORE.RESTR.CAVITY>
5.21297

>  <SCORE.RESTR.norm>
0.226651

>  <SCORE.SYSTEM>
0

>  <SCORE.SYSTEM.CONST>
0

>  <SCORE.SYSTEM.DIHEDRAL>
0

>  <SCORE.SYSTEM.SOLV>
0

>  <SCORE.SYSTEM.norm>
0

>  <SCORE.heavy>
23

>  <SCORE.norm>
-0.590483

>  <RMSD>
16.827

$$$$
1uui_lig
 OpenBabel11021811413D
libRbt.so/2013.1/901 2013/11/27
 23 24  0  0  0  0  0  0  0  0999 V2000
   -7.3568    0.5602  -12.6522 C   0  0  0  0  0  0  0  0  0  0  0  0
  -10.2531    0.6748  -12.4296 O   0  0  0  0  0  0  0  0  0  0  0  0
   -7.7034   -4.3348  -11.4771 O   0  0  0  0  0  0  0  0  0  0  0  0
  -11.3515    0.4979  -13.3331 C   0  0  0  0  0  0  0  0  0  0  0  0
   -7.0463   -4.3050  -10.2077 C   0  0  0  0  0  0  0  0  0  0  0  0
   -8.1281    1.4453  -13.5856 N   0  0  0  0  0  0  0  0  0  0  0  0
  -12.6577    0.8000  -12.5970 C   0  0  0  0  0  0  0  0  0  0  0  0
   -8.2435    0.8335  -14.9373 C   0  0  0  0  0  0  0  0  0  0  0  0
   -7.4885    2.7826  -13.6996 C   0  0  0  0  0  0  0  0  0  0  0  0
  -12.7564    2.2997  -12.2998 C   0  0  0  0  0  0  0  0  0  0  0  0
   -6.8670    0.6068  -15.5853 C   0  0  0  0  0  0  0  0  0  0  0  0
   -6.0478    2.6791  -14.2285 C   0  0  0  0  0  0  0  0  0  0  0  0
  -13.2423    3.0108  -13.5034 N   0  0  0  0  0  0  0  0  0  0  0  0
   -5.7821    1.3589  -14.8804 N   0  0  0  0  0  0  0  0  0  0  0  0
   -4.4483    0.9433  -15.0499 C   0  0  0  0  0  0  0  0  0  0  0  0
   -3.4552    1.8543  -15.2570 N   0  0  0  0  0  0  0  0  0  0  0  0
   -4.1388   -0.3813  -15.1453 N   0  0  0  0  0  0  0  0  0  0  0  0
   -9.6108   -0.5802  -12.1873 C   0  0  0  0  0  0  0  0  0  0  0  0
   -8.1964   -0.6853  -12.2851 C   0  0  0  0  0  0  0  0  0  0  0  0
   -7.5625   -1.9366  -12.0476 C   0  0  0  0  0  0  0  0  0  0  0  0
   -8.3423   -3.0771  -11.7137 C   0  0  0  0  0  0  0  0  0  0  0  0
   -9.7544   -2.9686  -11.6155 C   0  0  0  0  0  0  0  0  0  0  0  0
  -10.3882   -1.7206  -11.8534 C   0  0  0  0  0  0  0  0  0  0  0  0
  2  4  1  0  0  0  0
  3  5  1  0  0  0  0
  4  7  1  0  0  0  0
  6  1  1  0  0  0  0
  7 10  1  0  0  0  0
  8  6  1  0  0  0  0
  8 11  1  0  0  0  0
  9  6  1  0  0  0  0
 10 13  1  0  0  0  0
 11 14  1  0  0  0  0
 12  9  1  0  0  0  0
 14 12  1  0  0  0  0
 14 15  1  0  0  0  0
 15 16  1  0  0  0  0
 15 17  1  0  0  0  0
 18  2  1  0  0  0  0
 18 23  2  0  0  0  0
 19  1  1  0  0  0  0
 19 18  1  0  0  0  0
 20 19  2  0  0  0  0
 21  3  1  0  0  0  0
 21 20  1  0  0  0  0
 22 21  2  0  0  0  0
 22 23  1  0  0  0  0
M  END
>  <CHROM.1>
114.15294756,69.88393073,-71.18872201,81.55457495,-173.51649833,136.46488642
-102.00005583,138.90215751,131.45856372,-33.00495313,73.86783284,-8.28752075
0.06652045,-13.18991717,0.21352133,0.26892749,-0.49157371

>  <Name>
1uui_lig

>  <RI>
0

>  <Rbt.Current_Directory>
/home/itssahil/PROJECTS/Mol_Feturizer/New_Systems/rnas/1uui

>  <Rbt.Executable>
rbdock ($Id: //depot/dev/client3/rdock/2013.1/src/exe/rbdock.cxx#4 $)

>  <Rbt.Library>
libRbt.so (2013.1, Build901 2013/11/27)

>  <Rbt.Parameter_File>
/export/apps/rDock/src/rDock_2013.1_src/data/scripts/dock_solv.prm

>  <Rbt.Receptor>
prm/blind_docking_20.prm

>  <SCORE>
-7.0808

>  <SCORE.INTER>
-11.5263

>  <SCORE.INTER.CONST>
1

>  <SCORE.INTER.POLAR>
-0.590587

>  <SCORE.INTER.ROT>
10

>  <SCORE.INTER.SOLV>
11.1381

>  <SCORE.INTER.VDW>
-19.695

>  <SCORE.INTER.norm>
-0.501144

>  <SCORE.INTRA>
-4.45287

>  <SCORE.INTRA.DIHEDRAL>
-2.64884

>  <SCORE.INTRA.DIHEDRAL.0>
23.4151

>  <SCORE.INTRA.POLAR>
-0.745343

>  <SCORE.INTRA.POLAR.0>
0

>  <SCORE.INTRA.REPUL>
0

>  <SCORE.INTRA.REPUL.0>
0

>  <SCORE.INTRA.SOLV>
0.536358

>  <SCORE.INTRA.SOLV.lig_0>
-17.3568

>  <SCORE.INTRA.VDW>
-0.862468

>  <SCORE.INTRA.VDW.0>
1.0768

>  <SCORE.INTRA.norm>
-0.193603

>  <SCORE.RESTR>
8.89838

>  <SCORE.RESTR.CAVITY>
8.89838

>  <SCORE.RESTR.norm>
0.386886

>  <SCORE.SYSTEM>
0

>  <SCORE.SYSTEM.CONST>
0

>  <SCORE.SYSTEM.DIHEDRAL>
0

>  <SCORE.SYSTEM.SOLV>
0

>  <SCORE.SYSTEM.norm>
0

>  <SCORE.heavy>
23

>  <SCORE.norm>
-0.307861

>  <RMSD>
16.834

$$$$
1uui_lig
 OpenBabel11021811413D
libRbt.so/2013.1/901 2013/11/27
 23 24  0  0  0  0  0  0  0  0999 V2000
   -7.3152   -0.4236  -14.2410 C   0  0  0  0  0  0  0  0  0  0  0  0
   -7.6699    0.6627  -11.5679 O   0  0  0  0  0  0  0  0  0  0  0  0
   -7.5403   -5.0078  -12.1444 O   0  0  0  0  0  0  0  0  0  0  0  0
   -8.9690    1.0775  -11.1270 C   0  0  0  0  0  0  0  0  0  0  0  0
   -8.8091   -5.5520  -11.7731 C   0  0  0  0  0  0  0  0  0  0  0  0
   -6.0052   -0.6859  -14.9226 N   0  0  0  0  0  0  0  0  0  0  0  0
  -10.0174    0.5802  -12.1234 C   0  0  0  0  0  0  0  0  0  0  0  0
   -4.8612   -0.2358  -14.0840 C   0  0  0  0  0  0  0  0  0  0  0  0
   -5.9486   -0.0069  -16.2440 C   0  0  0  0  0  0  0  0  0  0  0  0
   -9.8552    1.3085  -13.4614 C   0  0  0  0  0  0  0  0  0  0  0  0
   -4.9140    1.2754  -13.8024 C   0  0  0  0  0  0  0  0  0  0  0  0
   -6.1136    1.5163  -16.1066 C   0  0  0  0  0  0  0  0  0  0  0  0
  -11.0964    1.1661  -14.2548 N   0  0  0  0  0  0  0  0  0  0  0  0
   -5.8750    1.9831  -14.7054 N   0  0  0  0  0  0  0  0  0  0  0  0
   -6.3666    3.2437  -14.3183 C   0  0  0  0  0  0  0  0  0  0  0  0
   -5.5877    4.3578  -14.4230 N   0  0  0  0  0  0  0  0  0  0  0  0
   -7.5797    3.3598  -13.7064 N   0  0  0  0  0  0  0  0  0  0  0  0
   -7.6332   -0.7598  -11.7145 C   0  0  0  0  0  0  0  0  0  0  0  0
   -7.4624   -1.3374  -13.0023 C   0  0  0  0  0  0  0  0  0  0  0  0
   -7.4311   -2.7526  -13.1437 C   0  0  0  0  0  0  0  0  0  0  0  0
   -7.5702   -3.5850  -12.0000 C   0  0  0  0  0  0  0  0  0  0  0  0
   -7.7393   -3.0052  -10.7153 C   0  0  0  0  0  0  0  0  0  0  0  0
   -7.7719   -1.5930  -10.5730 C   0  0  0  0  0  0  0  0  0  0  0  0
  2  4  1  0  0  0  0
  3  5  1  0  0  0  0
  4  7  1  0  0  0  0
  6  1  1  0  0  0  0
  7 10  1  0  0  0  0
  8  6  1  0  0  0  0
  8 11  1  0  0  0  0
  9  6  1  0  0  0  0
 10 13  1  0  0  0  0
 11 14  1  0  0  0  0
 12  9  1  0  0  0  0
 14 12  1  0  0  0  0
 14 15  1  0  0  0  0
 15 16  1  0  0  0  0
 15 17  1  0  0  0  0
 18  2  1  0  0  0  0
 18 23  2  0  0  0  0
 19  1  1  0  0  0  0
 19 18  1  0  0  0  0
 20 19  2  0  0  0  0
 21  3  1  0  0  0  0
 21 20  1  0  0  0  0
 22 21  2  0  0  0  0
 22 23  1  0  0  0  0
M  END
>  <CHROM.1>
-56.92985711,-67.58000458,-68.26039390,-161.75028959,-55.79109380,76.13358637
-14.19400514,114.61891574,114.22623071,120.76048593,-115.53698007,-7.42521918
-0.13067324,-13.26009189,-1.30492452,-0.55208142,2.86773321

>  <Name>
1uui_lig

>  <RI>
0

>  <Rbt.Current_Directory>
/home/itssahil/PROJECTS/Mol_Feturizer/New_Systems/rnas/1uui

>  <Rbt.Executable>
rbdock ($Id: //depot/dev/client3/rdock/2013.1/src/exe/rbdock.cxx#4 $)

>  <Rbt.Library>
libRbt.so (2013.1, Build901 2013/11/27)

>  <Rbt.Parameter_File>
/export/apps/rDock/src/rDock_2013.1_src/data/scripts/dock_solv.prm

>  <Rbt.Receptor>
prm/blind_docking_20.prm

>  <SCORE>
-17.5123

>  <SCORE.INTER>
-19.1774

>  <SCORE.INTER.CONST>
1

>  <SCORE.INTER.POLAR>
-2.5281

>  <SCORE.INTER.ROT>
10

>  <SCORE.INTER.SOLV>
12.8323

>  <SCORE.INTER.VDW>
-18.902

>  <SCORE.INTER.norm>
-0.833799

>  <SCORE.INTRA>
-4.19569

>  <SCORE.INTRA.DIHEDRAL>
-9.42328

>  <SCORE.INTRA.DIHEDRAL.0>
23.4151

>  <SCORE.INTRA.POLAR>
0

>  <SCORE.INTRA.POLAR.0>
0

>  <SCORE.INTRA.REPUL>
0.338517

>  <SCORE.INTRA.REPUL.0>
0

>  <SCORE.INTRA.SOLV>
1.17073

>  <SCORE.INTRA.SOLV.lig_0>
-17.3568

>  <SCORE.INTRA.VDW>
-1.762

>  <SCORE.INTRA.VDW.0>
1.0768

>  <SCORE.INTRA.norm>
-0.182421

>  <SCORE.RESTR>
5.86074

>  <SCORE.RESTR.CAVITY>
5.86074

>  <SCORE.RESTR.norm>
0.254815

>  <SCORE.SYSTEM>
0

>  <SCORE.SYSTEM.CONST>
0

>  <SCORE.SYSTEM.DIHEDRAL>
0

>  <SCORE.SYSTEM.SOLV>
0

>  <SCORE.SYSTEM.norm>
0

>  <SCORE.heavy>
23

>  <SCORE.norm>
-0.761406

>  <RMSD>
16.878

$$$$
1uui_lig
 OpenBabel11021811413D
libRbt.so/2013.1/901 2013/11/27
 23 24  0  0  0  0  0  0  0  0999 V2000
   -7.2532    0.1143  -14.2026 C   0  0  0  0  0  0  0  0  0  0  0  0
   -8.0496    1.3989  -11.7193 O   0  0  0  0  0  0  0  0  0  0  0  0
   -7.5009   -4.2758  -11.7274 O   0  0  0  0  0  0  0  0  0  0  0  0
   -9.2630    1.7697  -11.0528 C   0  0  0  0  0  0  0  0  0  0  0  0
   -6.7507   -4.6858  -10.5815 C   0  0  0  0  0  0  0  0  0  0  0  0
   -6.0446   -0.4236  -14.9092 N   0  0  0  0  0  0  0  0  0  0  0  0
  -10.3497    2.0246  -12.0984 C   0  0  0  0  0  0  0  0  0  0  0  0
   -4.7961   -0.0955  -14.1687 C   0  0  0  0  0  0  0  0  0  0  0  0
   -5.9557    0.1129  -16.2930 C   0  0  0  0  0  0  0  0  0  0  0  0
  -10.5649    0.7676  -12.9473 C   0  0  0  0  0  0  0  0  0  0  0  0
   -4.5876    1.4228  -14.0372 C   0  0  0  0  0  0  0  0  0  0  0  0
   -5.8640    1.6483  -16.3013 C   0  0  0  0  0  0  0  0  0  0  0  0
  -11.5738    1.0452  -13.9940 N   0  0  0  0  0  0  0  0  0  0  0  0
   -5.4722    2.1950  -14.9649 N   0  0  0  0  0  0  0  0  0  0  0  0
   -5.7303    3.5498  -14.6851 C   0  0  0  0  0  0  0  0  0  0  0  0
   -6.3104    3.9204  -13.5081 N   0  0  0  0  0  0  0  0  0  0  0  0
   -5.5312    4.5072  -15.6356 N   0  0  0  0  0  0  0  0  0  0  0  0
   -7.9076   -0.0245  -11.7227 C   0  0  0  0  0  0  0  0  0  0  0  0
   -7.5207   -0.6973  -12.9139 C   0  0  0  0  0  0  0  0  0  0  0  0
   -7.3851   -2.1134  -12.9136 C   0  0  0  0  0  0  0  0  0  0  0  0
   -7.6360   -2.8518  -11.7253 C   0  0  0  0  0  0  0  0  0  0  0  0
   -8.0208   -2.1770  -10.5371 C   0  0  0  0  0  0  0  0  0  0  0  0
   -8.1576   -0.7638  -10.5364 C   0  0  0  0  0  0  0  0  0  0  0  0
  2  4  1  0  0  0  0
  3  5  1  0  0  0  0
  4  7  1  0  0  0  0
  6  1  1  0  0  0  0
  7 10  1  0  0  0  0
  8  6  1  0  0  0  0
  8 11  1  0  0  0  0
  9  6  1  0  0  0  0
 10 13  1  0  0  0  0
 11 14  1  0  0  0  0
 12  9  1  0  0  0  0
 14 12  1  0  0  0  0
 14 15  1  0  0  0  0
 15 16  1  0  0  0  0
 15 17  1  0  0  0  0
 18  2  1  0  0  0  0
 18 23  2  0  0  0  0
 19  1  1  0  0  0  0
 19 18  1  0  0  0  0
 20 19  2  0  0  0  0
 21  3  1  0  0  0  0
 21 20  1  0  0  0  0
 22 21  2  0  0  0  0
 22 23  1  0  0  0  0
M  END
>  <CHROM.1>
-97.95273331,58.60325443,-71.44056555,-177.45168549,-58.86968935,-58.82201379
-24.01136173,49.02170650,134.58361309,138.77384938,133.26538321,-7.33275200
0.32955086,-13.21972011,-1.22505979,-0.51066428,2.72678029

>  <Name>
1uui_lig

>  <RI>
0

>  <Rbt.Current_Directory>
/home/itssahil/PROJECTS/Mol_Feturizer/New_Systems/rnas/1uui

>  <Rbt.Executable>
rbdock ($Id: //depot/dev/client3/rdock/2013.1/src/exe/rbdock.cxx#4 $)

>  <Rbt.Library>
libRbt.so (2013.1, Build901 2013/11/27)

>  <Rbt.Parameter_File>
/export/apps/rDock/src/rDock_2013.1_src/data/scripts/dock_solv.prm

>  <Rbt.Receptor>
prm/blind_docking_20.prm

>  <SCORE>
-12.2507

>  <SCORE.INTER>
-14.1802

>  <SCORE.INTER.CONST>
1

>  <SCORE.INTER.POLAR>
-0.350148

>  <SCORE.INTER.ROT>
10

>  <SCORE.INTER.SOLV>
13.0463

>  <SCORE.INTER.VDW>
-22.9018

>  <SCORE.INTER.norm>
-0.616532

>  <SCORE.INTRA>
-2.53822

>  <SCORE.INTRA.DIHEDRAL>
-8.61786

>  <SCORE.INTRA.DIHEDRAL.0>
23.4151

>  <SCORE.INTRA.POLAR>
0

>  <SCORE.INTRA.POLAR.0>
0

>  <SCORE.INTRA.REPUL>
0.235169

>  <SCORE.INTRA.REPUL.0>
0

>  <SCORE.INTRA.SOLV>
0.417335

>  <SCORE.INTRA.SOLV.lig_0>
-17.3568

>  <SCORE.INTRA.VDW>
0.386192

>  <SCORE.INTRA.VDW.0>
1.0768

>  <SCORE.INTRA.norm>
-0.110358

>  <SCORE.RESTR>
4.46775

>  <SCORE.RESTR.CAVITY>
4.46775

>  <SCORE.RESTR.norm>
0.19425

>  <SCORE.SYSTEM>
0

>  <SCORE.SYSTEM.CONST>
0

>  <SCORE.SYSTEM.DIHEDRAL>
0

>  <SCORE.SYSTEM.SOLV>
0

>  <SCORE.SYSTEM.norm>
0

>  <SCORE.heavy>
23

>  <SCORE.norm>
-0.53264

>  <RMSD>
16.937

$$$$
1uui_lig
 OpenBabel11021811413D
libRbt.so/2013.1/901 2013/11/27
 23 24  0  0  0  0  0  0  0  0999 V2000
   -6.9022   -0.0997  -13.2544 C   0  0  0  0  0  0  0  0  0  0  0  0
   -9.7814    0.2723  -13.1022 O   0  0  0  0  0  0  0  0  0  0  0  0
   -7.6042   -4.5605  -11.0027 O   0  0  0  0  0  0  0  0  0  0  0  0
   -9.8708    1.2635  -12.0709 C   0  0  0  0  0  0  0  0  0  0  0  0
   -6.9510   -5.2821  -12.0499 C   0  0  0  0  0  0  0  0  0  0  0  0
   -6.2445   -0.6508  -14.4845 N   0  0  0  0  0  0  0  0  0  0  0  0
  -11.1357    2.0960  -12.2861 C   0  0  0  0  0  0  0  0  0  0  0  0
   -4.7862   -0.3541  -14.4955 C   0  0  0  0  0  0  0  0  0  0  0  0
   -6.8718   -0.0996  -15.7146 C   0  0  0  0  0  0  0  0  0  0  0  0
  -12.3435    1.1733  -12.4781 C   0  0  0  0  0  0  0  0  0  0  0  0
   -4.5071    1.1585  -14.4893 C   0  0  0  0  0  0  0  0  0  0  0  0
   -6.7645    1.4340  -15.7677 C   0  0  0  0  0  0  0  0  0  0  0  0
  -13.5782    1.9858  -12.5558 N   0  0  0  0  0  0  0  0  0  0  0  0
   -5.7269    1.9576  -14.8256 N   0  0  0  0  0  0  0  0  0  0  0  0
   -5.7740    3.3134  -14.4514 C   0  0  0  0  0  0  0  0  0  0  0  0
   -6.5658    3.7249  -13.4205 N   0  0  0  0  0  0  0  0  0  0  0  0
   -5.1359    4.2629  -15.1935 N   0  0  0  0  0  0  0  0  0  0  0  0
   -9.2325   -0.9378  -12.5726 C   0  0  0  0  0  0  0  0  0  0  0  0
   -7.8300   -1.1648  -12.6251 C   0  0  0  0  0  0  0  0  0  0  0  0
   -7.2891   -2.3718  -12.1012 C   0  0  0  0  0  0  0  0  0  0  0  0
   -8.1497   -3.3467  -11.5273 C   0  0  0  0  0  0  0  0  0  0  0  0
   -9.5495   -3.1166  -11.4752 C   0  0  0  0  0  0  0  0  0  0  0  0
  -10.0906   -1.9129  -11.9987 C   0  0  0  0  0  0  0  0  0  0  0  0
  2  4  1  0  0  0  0
  3  5  1  0  0  0  0
  4  7  1  0  0  0  0
  6  1  1  0  0  0  0
  7 10  1  0  0  0  0
  8  6  1  0  0  0  0
  8 11  1  0  0  0  0
  9  6  1  0  0  0  0
 10 13  1  0  0  0  0
 11 14  1  0  0  0  0
 12  9  1  0  0  0  0
 14 12  1  0  0  0  0
 14 15  1  0  0  0  0
 15 16  1  0  0  0  0
 15 17  1  0  0  0  0
 18  2  1  0  0  0  0
 18 23  2  0  0  0  0
 19  1  1  0  0  0  0
 19 18  1  0  0  0  0
 20 19  2  0  0  0  0
 21  3  1  0  0  0  0
 21 20  1  0  0  0  0
 22 21  2  0  0  0  0
 22 23  1  0  0  0  0
M  END
>  <CHROM.1>
-143.96225866,50.14374843,-133.60767022,174.62953356,-60.41188652,-106.84108463
170.87675894,87.14134123,-91.92170616,-115.49532537,-61.24601291,-7.96211415
0.01684376,-13.23468595,-1.00623630,-0.32466799,2.81627112

>  <Name>
1uui_lig

>  <RI>
0

>  <Rbt.Current_Directory>
/home/itssahil/PROJECTS/Mol_Feturizer/New_Systems/rnas/1uui

>  <Rbt.Executable>
rbdock ($Id: //depot/dev/client3/rdock/2013.1/src/exe/rbdock.cxx#4 $)

>  <Rbt.Library>
libRbt.so (2013.1, Build901 2013/11/27)

>  <Rbt.Parameter_File>
/export/apps/rDock/src/rDock_2013.1_src/data/scripts/dock_solv.prm

>  <Rbt.Receptor>
prm/blind_docking_20.prm

>  <SCORE>
-4.96441

>  <SCORE.INTER>
-8.51833

>  <SCORE.INTER.CONST>
1

>  <SCORE.INTER.POLAR>
-0.914361

>  <SCORE.INTER.ROT>
10

>  <SCORE.INTER.SOLV>
11.7887

>  <SCORE.INTER.VDW>
-16.8273

>  <SCORE.INTER.norm>
-0.370362

>  <SCORE.INTRA>
-3.65872

>  <SCORE.INTRA.DIHEDRAL>
-2.41535

>  <SCORE.INTRA.DIHEDRAL.0>
23.4151

>  <SCORE.INTRA.POLAR>
0

>  <SCORE.INTRA.POLAR.0>
0

>  <SCORE.INTRA.REPUL>
0

>  <SCORE.INTRA.REPUL.0>
0

>  <SCORE.INTRA.SOLV>
0.108014

>  <SCORE.INTRA.SOLV.lig_0>
-17.3568

>  <SCORE.INTRA.VDW>
-2.50505

>  <SCORE.INTRA.VDW.0>
1.0768

>  <SCORE.INTRA.norm>
-0.159075

>  <SCORE.RESTR>
7.21264

>  <SCORE.RESTR.CAVITY>
7.21264

>  <SCORE.RESTR.norm>
0.313593

>  <SCORE.SYSTEM>
0

>  <SCORE.SYSTEM.CONST>
0

>  <SCORE.SYSTEM.DIHEDRAL>
0

>  <SCORE.SYSTEM.SOLV>
0

>  <SCORE.SYSTEM.norm>
0

>  <SCORE.heavy>
23

>  <SCORE.norm>
-0.215844

>  <RMSD>
16.953

$$$$
1uui_lig
 OpenBabel11021811413D
libRbt.so/2013.1/901 2013/11/27
 23 24  0  0  0  0  0  0  0  0999 V2000
   -7.2165   -0.3365  -14.6083 C   0  0  0  0  0  0  0  0  0  0  0  0
   -7.7149    0.9762  -12.0628 O   0  0  0  0  0  0  0  0  0  0  0  0
   -7.6296   -4.7237  -12.1499 O   0  0  0  0  0  0  0  0  0  0  0  0
   -9.0640    1.4451  -12.1810 C   0  0  0  0  0  0  0  0  0  0  0  0
   -6.7616   -5.2053  -11.1210 C   0  0  0  0  0  0  0  0  0  0  0  0
   -5.8289   -0.5797  -15.1229 N   0  0  0  0  0  0  0  0  0  0  0  0
   -9.6295    1.0053  -13.5323 C   0  0  0  0  0  0  0  0  0  0  0  0
   -4.8059   -0.2413  -14.0963 C   0  0  0  0  0  0  0  0  0  0  0  0
   -5.5736    0.2102  -16.3563 C   0  0  0  0  0  0  0  0  0  0  0  0
  -11.1396    1.2597  -13.5759 C   0  0  0  0  0  0  0  0  0  0  0  0
   -4.8688    1.2404  -13.6883 C   0  0  0  0  0  0  0  0  0  0  0  0
   -5.7269    1.7200  -16.1049 C   0  0  0  0  0  0  0  0  0  0  0  0
  -11.7979    0.5140  -12.4800 N   0  0  0  0  0  0  0  0  0  0  0  0
   -5.6791    2.0546  -14.6475 N   0  0  0  0  0  0  0  0  0  0  0  0
   -6.1960    3.2914  -14.2190 C   0  0  0  0  0  0  0  0  0  0  0  0
   -7.4635    3.3839  -13.7251 N   0  0  0  0  0  0  0  0  0  0  0  0
   -5.4933    4.4440  -14.4121 N   0  0  0  0  0  0  0  0  0  0  0  0
   -7.6892   -0.4538  -12.0864 C   0  0  0  0  0  0  0  0  0  0  0  0
   -7.4499   -1.1403  -13.3081 C   0  0  0  0  0  0  0  0  0  0  0  0
   -7.4298   -2.5626  -13.3275 C   0  0  0  0  0  0  0  0  0  0  0  0
   -7.6484   -3.2935  -12.1282 C   0  0  0  0  0  0  0  0  0  0  0  0
   -7.8858   -2.6051  -10.9095 C   0  0  0  0  0  0  0  0  0  0  0  0
   -7.9072   -1.1857  -10.8892 C   0  0  0  0  0  0  0  0  0  0  0  0
  2  4  1  0  0  0  0
  3  5  1  0  0  0  0
  4  7  1  0  0  0  0
  6  1  1  0  0  0  0
  7 10  1  0  0  0  0
  8  6  1  0  0  0  0
  8 11  1  0  0  0  0
  9  6  1  0  0  0  0
 10 13  1  0  0  0  0
 11 14  1  0  0  0  0
 12  9  1  0  0  0  0
 14 12  1  0  0  0  0
 14 15  1  0  0  0  0
 15 16  1  0  0  0  0
 15 17  1  0  0  0  0
 18  2  1  0  0  0  0
 18 23  2  0  0  0  0
 19  1  1  0  0  0  0
 19 18  1  0  0  0  0
 20 19  2  0  0  0  0
 21  3  1  0  0  0  0
 21 20  1  0  0  0  0
 22 21  2  0  0  0  0
 22 23  1  0  0  0  0
M  END
>  <CHROM.1>
-62.68725370,169.35395486,-56.52726106,-58.80025724,-172.61183380,-94.69938052
117.98106722,159.90117740,95.23706226,116.05729220,129.58355357,-7.35630086
0.01615413,-13.34626163,-1.31113720,-0.42370344,2.81554329

>  <Name>
1uui_lig

>  <RI>
0

>  <Rbt.Current_Directory>
/home/itssahil/PROJECTS/Mol_Feturizer/New_Systems/rnas/1uui

>  <Rbt.Executable>
rbdock ($Id: //depot/dev/client3/rdock/2013.1/src/exe/rbdock.cxx#4 $)

>  <Rbt.Library>
libRbt.so (2013.1, Build901 2013/11/27)

>  <Rbt.Parameter_File>
/export/apps/rDock/src/rDock_2013.1_src/data/scripts/dock_solv.prm

>  <Rbt.Receptor>
prm/blind_docking_20.prm

>  <SCORE>
-26.4006

>  <SCORE.INTER>
-27.5622

>  <SCORE.INTER.CONST>
1

>  <SCORE.INTER.POLAR>
-3.50782

>  <SCORE.INTER.ROT>
10

>  <SCORE.INTER.SOLV>
13.1761

>  <SCORE.INTER.VDW>
-21.3408

>  <SCORE.INTER.norm>
-1.19836

>  <SCORE.INTRA>
-4.10868

>  <SCORE.INTRA.DIHEDRAL>
-10.9799

>  <SCORE.INTRA.DIHEDRAL.0>
23.4151

>  <SCORE.INTRA.POLAR>
0

>  <SCORE.INTRA.POLAR.0>
0

>  <SCORE.INTRA.REPUL>
0.181695

>  <SCORE.INTRA.REPUL.0>
0

>  <SCORE.INTRA.SOLV>
1.59161

>  <SCORE.INTRA.SOLV.lig_0>
-17.3568

>  <SCORE.INTRA.VDW>
-0.323007

>  <SCORE.INTRA.VDW.0>
1.0768

>  <SCORE.INTRA.norm>
-0.178638

>  <SCORE.RESTR>
5.27026

>  <SCORE.RESTR.CAVITY>
5.27026

>  <SCORE.RESTR.norm>
0.229142

>  <SCORE.SYSTEM>
0

>  <SCORE.SYSTEM.CONST>
0

>  <SCORE.SYSTEM.DIHEDRAL>
0

>  <SCORE.SYSTEM.SOLV>
0

>  <SCORE.SYSTEM.norm>
0

>  <SCORE.heavy>
23

>  <SCORE.norm>
-1.14785

>  <RMSD>
17.010

$$$$
1uui_lig
 OpenBabel11021811413D
libRbt.so/2013.1/901 2013/11/27
 23 24  0  0  0  0  0  0  0  0999 V2000
   -7.2495    0.0019  -14.4095 C   0  0  0  0  0  0  0  0  0  0  0  0
   -7.9136    1.5273  -12.0255 O   0  0  0  0  0  0  0  0  0  0  0  0
   -7.4858   -4.1363  -11.5318 O   0  0  0  0  0  0  0  0  0  0  0  0
   -9.0016    1.8612  -12.8966 C   0  0  0  0  0  0  0  0  0  0  0  0
   -8.7930   -4.7023  -11.4092 C   0  0  0  0  0  0  0  0  0  0  0  0
   -6.0082   -0.5395  -15.0541 N   0  0  0  0  0  0  0  0  0  0  0  0
  -10.3216    1.5501  -12.1895 C   0  0  0  0  0  0  0  0  0  0  0  0
   -4.8095   -0.2940  -14.2071 C   0  0  0  0  0  0  0  0  0  0  0  0
   -5.7994    0.0655  -16.3961 C   0  0  0  0  0  0  0  0  0  0  0  0
  -11.4592    1.4759  -13.2130 C   0  0  0  0  0  0  0  0  0  0  0  0
   -4.5652    1.2071  -13.9775 C   0  0  0  0  0  0  0  0  0  0  0  0
   -5.6606    1.5952  -16.3133 C   0  0  0  0  0  0  0  0  0  0  0  0
  -12.7604    1.5348  -12.5104 N   0  0  0  0  0  0  0  0  0  0  0  0
   -5.3538    2.0571  -14.9237 N   0  0  0  0  0  0  0  0  0  0  0  0
   -5.5907    3.4035  -14.5895 C   0  0  0  0  0  0  0  0  0  0  0  0
   -6.3468    3.7293  -13.5027 N   0  0  0  0  0  0  0  0  0  0  0  0
   -5.1845    4.4080  -15.4174 N   0  0  0  0  0  0  0  0  0  0  0  0
   -7.8020    0.1065  -11.9032 C   0  0  0  0  0  0  0  0  0  0  0  0
   -7.4798   -0.6817  -13.0417 C   0  0  0  0  0  0  0  0  0  0  0  0
   -7.3743   -2.0948  -12.9162 C   0  0  0  0  0  0  0  0  0  0  0  0
   -7.5906   -2.7151  -11.6557 C   0  0  0  0  0  0  0  0  0  0  0  0
   -7.9109   -1.9252  -10.5205 C   0  0  0  0  0  0  0  0  0  0  0  0
   -8.0175   -0.5149  -10.6448 C   0  0  0  0  0  0  0  0  0  0  0  0
  2  4  1  0  0  0  0
  3  5  1  0  0  0  0
  4  7  1  0  0  0  0
  6  1  1  0  0  0  0
  7 10  1  0  0  0  0
  8  6  1  0  0  0  0
  8 11  1  0  0  0  0
  9  6  1  0  0  0  0
 10 13  1  0  0  0  0
 11 14  1  0  0  0  0
 12  9  1  0  0  0  0
 14 12  1  0  0  0  0
 14 15  1  0  0  0  0
 15 16  1  0  0  0  0
 15 17  1  0  0  0  0
 18  2  1  0  0  0  0
 18 23  2  0  0  0  0
 19  1  1  0  0  0  0
 19 18  1  0  0  0  0
 20 19  2  0  0  0  0
 21  3  1  0  0  0  0
 21 20  1  0  0  0  0
 22 21  2  0  0  0  0
 22 23  1  0  0  0  0
M  END
>  <CHROM.1>
71.19976872,-162.43290255,-60.17940085,-165.11080866,-47.46422507,-64.64212078
168.09859261,-96.58275611,63.98874803,133.50743640,-105.71674174,-7.44718206
0.35402758,-13.29254728,-0.98902998,-0.43911604,2.78629032

>  <Name>
1uui_lig

>  <RI>
0

>  <Rbt.Current_Directory>
/home/itssahil/PROJECTS/Mol_Feturizer/New_Systems/rnas/1uui

>  <Rbt.Executable>
rbdock ($Id: //depot/dev/client3/rdock/2013.1/src/exe/rbdock.cxx#4 $)

>  <Rbt.Library>
libRbt.so (2013.1, Build901 2013/11/27)

>  <Rbt.Parameter_File>
/export/apps/rDock/src/rDock_2013.1_src/data/scripts/dock_solv.prm

>  <Rbt.Receptor>
prm/blind_docking_20.prm

>  <SCORE>
-18.3069

>  <SCORE.INTER>
-15.6264

>  <SCORE.INTER.CONST>
1

>  <SCORE.INTER.POLAR>
-0.792343

>  <SCORE.INTER.ROT>
10

>  <SCORE.INTER.SOLV>
12.8428

>  <SCORE.INTER.VDW>
-22.3241

>  <SCORE.INTER.norm>
-0.679409

>  <SCORE.INTRA>
-8.20312

>  <SCORE.INTRA.DIHEDRAL>
-7.88914

>  <SCORE.INTRA.DIHEDRAL.0>
23.4151

>  <SCORE.INTRA.POLAR>
-1

>  <SCORE.INTRA.POLAR.0>
0

>  <SCORE.INTRA.REPUL>
0.00705988

>  <SCORE.INTRA.REPUL.0>
0

>  <SCORE.INTRA.SOLV>
0.840862

>  <SCORE.INTRA.SOLV.lig_0>
-17.3568

>  <SCORE.INTRA.VDW>
-1.31428

>  <SCORE.INTRA.VDW.0>
1.0768

>  <SCORE.INTRA.norm>
-0.356657

>  <SCORE.RESTR>
5.52258

>  <SCORE.RESTR.CAVITY>
5.52258

>  <SCORE.RESTR.norm>
0.240112

>  <SCORE.SYSTEM>
0

>  <SCORE.SYSTEM.CONST>
0

>  <SCORE.SYSTEM.DIHEDRAL>
0

>  <SCORE.SYSTEM.SOLV>
0

>  <SCORE.SYSTEM.norm>
0

>  <SCORE.heavy>
23

>  <SCORE.norm>
-0.795954

>  <RMSD>
17.017

$$$$
1uui_lig
 OpenBabel11021811413D
libRbt.so/2013.1/901 2013/11/27
 23 24  0  0  0  0  0  0  0  0999 V2000
   -7.1245   -0.0076  -14.5371 C   0  0  0  0  0  0  0  0  0  0  0  0
   -7.8677    1.5334  -12.1867 O   0  0  0  0  0  0  0  0  0  0  0  0
   -7.6306   -4.1410  -11.6875 O   0  0  0  0  0  0  0  0  0  0  0  0
   -9.0058    1.9072  -12.9735 C   0  0  0  0  0  0  0  0  0  0  0  0
   -6.9236   -4.4874  -10.4941 C   0  0  0  0  0  0  0  0  0  0  0  0
   -5.8010   -0.4879  -15.0537 N   0  0  0  0  0  0  0  0  0  0  0  0
  -10.2715    1.7447  -12.1304 C   0  0  0  0  0  0  0  0  0  0  0  0
   -4.6997   -0.1516  -14.1109 C   0  0  0  0  0  0  0  0  0  0  0  0
   -5.5073    0.0977  -16.3883 C   0  0  0  0  0  0  0  0  0  0  0  0
  -11.2541    0.8053  -12.8367 C   0  0  0  0  0  0  0  0  0  0  0  0
   -4.5643    1.3664  -13.9028 C   0  0  0  0  0  0  0  0  0  0  0  0
   -5.4652    1.6345  -16.3366 C   0  0  0  0  0  0  0  0  0  0  0  0
  -10.6562   -0.5443  -12.9449 N   0  0  0  0  0  0  0  0  0  0  0  0
   -5.3122    2.1456  -14.9388 N   0  0  0  0  0  0  0  0  0  0  0  0
   -5.6557    3.4826  -14.6649 C   0  0  0  0  0  0  0  0  0  0  0  0
   -5.2090    4.4945  -15.4621 N   0  0  0  0  0  0  0  0  0  0  0  0
   -6.3284    3.8087  -13.5244 N   0  0  0  0  0  0  0  0  0  0  0  0
   -7.8038    0.1097  -12.0628 C   0  0  0  0  0  0  0  0  0  0  0  0
   -7.4456   -0.6860  -13.1852 C   0  0  0  0  0  0  0  0  0  0  0  0
   -7.3878   -2.1018  -13.0584 C   0  0  0  0  0  0  0  0  0  0  0  0
   -7.6875   -2.7172  -11.8127 C   0  0  0  0  0  0  0  0  0  0  0  0
   -8.0436   -1.9198  -10.6934 C   0  0  0  0  0  0  0  0  0  0  0  0
   -8.1027   -0.5069  -10.8191 C   0  0  0  0  0  0  0  0  0  0  0  0
  2  4  1  0  0  0  0
  3  5  1  0  0  0  0
  4  7  1  0  0  0  0
  6  1  1  0  0  0  0
  7 10  1  0  0  0  0
  8  6  1  0  0  0  0
  8 11  1  0  0  0  0
  9  6  1  0  0  0  0
 10 13  1  0  0  0  0
 11 14  1  0  0  0  0
 12  9  1  0  0  0  0
 14 12  1  0  0  0  0
 14 15  1  0  0  0  0
 15 16  1  0  0  0  0
 15 17  1  0  0  0  0
 18  2  1  0  0  0  0
 18 23  2  0  0  0  0
 19  1  1  0  0  0  0
 19 18  1  0  0  0  0
 20 19  2  0  0  0  0
 21  3  1  0  0  0  0
 21 20  1  0  0  0  0
 22 21  2  0  0  0  0
 22 23  1  0  0  0  0
M  END
>  <CHROM.1>
75.08855077,-123.54573603,-60.89702502,63.75271825,-69.41159942,120.39861360
-92.15119401,154.95476173,71.46657019,128.08533046,133.81796109,-7.21221127
0.26700836,-13.31688740,-1.09237003,-0.49692465,2.78813093

>  <Name>
1uui_lig

>  <RI>
0

>  <Rbt.Current_Directory>
/home/itssahil/PROJECTS/Mol_Feturizer/New_Systems/rnas/1uui

>  <Rbt.Executable>
rbdock ($Id: //depot/dev/client3/rdock/2013.1/src/exe/rbdock.cxx#4 $)

>  <Rbt.Library>
libRbt.so (2013.1, Build901 2013/11/27)

>  <Rbt.Parameter_File>
/export/apps/rDock/src/rDock_2013.1_src/data/scripts/dock_solv.prm

>  <Rbt.Receptor>
prm/blind_docking_20.prm

>  <SCORE>
-20.1458

>  <SCORE.INTER>
-17.6005

>  <SCORE.INTER.CONST>
1

>  <SCORE.INTER.POLAR>
-0.709898

>  <SCORE.INTER.ROT>
10

>  <SCORE.INTER.SOLV>
12.2871

>  <SCORE.INTER.VDW>
-23.7297

>  <SCORE.INTER.norm>
-0.765239

>  <SCORE.INTRA>
-6.72989

>  <SCORE.INTRA.DIHEDRAL>
-5.49383

>  <SCORE.INTRA.DIHEDRAL.0>
23.4151

>  <SCORE.INTRA.POLAR>
-1

>  <SCORE.INTRA.POLAR.0>
0

>  <SCORE.INTRA.REPUL>
0

>  <SCORE.INTRA.REPUL.0>
0

>  <SCORE.INTRA.SOLV>
1.77115

>  <SCORE.INTRA.SOLV.lig_0>
-17.3568

>  <SCORE.INTRA.VDW>
-1.46856

>  <SCORE.INTRA.VDW.0>
1.0768

>  <SCORE.INTRA.norm>
-0.292604

>  <SCORE.RESTR>
4.18457

>  <SCORE.RESTR.CAVITY>
4.18457

>  <SCORE.RESTR.norm>
0.181938

>  <SCORE.SYSTEM>
0

>  <SCORE.SYSTEM.CONST>
0

>  <SCORE.SYSTEM.DIHEDRAL>
0

>  <SCORE.SYSTEM.SOLV>
0

>  <SCORE.SYSTEM.norm>
0

>  <SCORE.heavy>
23

>  <SCORE.norm>
-0.875905

>  <RMSD>
17.022

$$$$
1uui_lig
 OpenBabel11021811413D
libRbt.so/2013.1/901 2013/11/27
 23 24  0  0  0  0  0  0  0  0999 V2000
   -7.8921   -0.7114  -14.6255 C   0  0  0  0  0  0  0  0  0  0  0  0
   -9.8846    0.0397  -12.6463 O   0  0  0  0  0  0  0  0  0  0  0  0
   -7.0422   -4.8376  -11.8481 O   0  0  0  0  0  0  0  0  0  0  0  0
  -11.2621   -0.2399  -12.9263 C   0  0  0  0  0  0  0  0  0  0  0  0
   -6.6079   -4.9215  -10.4885 C   0  0  0  0  0  0  0  0  0  0  0  0
   -8.2290    0.7203  -14.3319 N   0  0  0  0  0  0  0  0  0  0  0  0
  -11.9354    1.0325  -13.4426 C   0  0  0  0  0  0  0  0  0  0  0  0
   -8.0424    1.5761  -15.5350 C   0  0  0  0  0  0  0  0  0  0  0  0
   -7.3965    1.2440  -13.2169 C   0  0  0  0  0  0  0  0  0  0  0  0
  -11.9303    2.1076  -12.3511 C   0  0  0  0  0  0  0  0  0  0  0  0
   -6.5866    1.5612  -16.0311 C   0  0  0  0  0  0  0  0  0  0  0  0
   -5.8958    1.1693  -13.5460 C   0  0  0  0  0  0  0  0  0  0  0  0
  -10.5620    2.2509  -11.8056 N   0  0  0  0  0  0  0  0  0  0  0  0
   -5.6500    0.9933  -15.0113 N   0  0  0  0  0  0  0  0  0  0  0  0
   -4.3981    0.5098  -15.4350 C   0  0  0  0  0  0  0  0  0  0  0  0
   -3.4960    1.3396  -16.0320 N   0  0  0  0  0  0  0  0  0  0  0  0
   -4.1120   -0.8224  -15.3810 N   0  0  0  0  0  0  0  0  0  0  0  0
   -9.1674   -1.1817  -12.4461 C   0  0  0  0  0  0  0  0  0  0  0  0
   -8.1839   -1.5910  -13.3876 C   0  0  0  0  0  0  0  0  0  0  0  0
   -7.4764   -2.8087  -13.1867 C   0  0  0  0  0  0  0  0  0  0  0  0
   -7.7533   -3.6125  -12.0475 C   0  0  0  0  0  0  0  0  0  0  0  0
   -8.7350   -3.2006  -11.1085 C   0  0  0  0  0  0  0  0  0  0  0  0
   -9.4425   -1.9860  -11.3086 C   0  0  0  0  0  0  0  0  0  0  0  0
  2  4  1  0  0  0  0
  3  5  1  0  0  0  0
  4  7  1  0  0  0  0
  6  1  1  0  0  0  0
  7 10  1  0  0  0  0
  8  6  1  0  0  0  0
  8 11  1  0  0  0  0
  9  6  1  0  0  0  0
 10 13  1  0  0  0  0
 11 14  1  0  0  0  0
 12  9  1  0  0  0  0
 14 12  1  0  0  0  0
 14 15  1  0  0  0  0
 15 16  1  0  0  0  0
 15 17  1  0  0  0  0
 18  2  1  0  0  0  0
 18 23  2  0  0  0  0
 19  1  1  0  0  0  0
 19 18  1  0  0  0  0
 20 19  2  0  0  0  0
 21  3  1  0  0  0  0
 21 20  1  0  0  0  0
 22 21  2  0  0  0  0
 22 23  1  0  0  0  0
M  END
>  <CHROM.1>
-167.36636947,-63.88049414,-176.26896188,50.37844122,-111.37840128,61.29780087
67.50593240,-79.36035880,112.25043019,26.26903247,134.20344699,-7.87105438
-0.44613575,-13.41207926,0.59040939,0.40526166,-0.50278776

>  <Name>
1uui_lig

>  <RI>
0

>  <Rbt.Current_Directory>
/home/itssahil/PROJECTS/Mol_Feturizer/New_Systems/rnas/1uui

>  <Rbt.Executable>
rbdock ($Id: //depot/dev/client3/rdock/2013.1/src/exe/rbdock.cxx#4 $)

>  <Rbt.Library>
libRbt.so (2013.1, Build901 2013/11/27)

>  <Rbt.Parameter_File>
/export/apps/rDock/src/rDock_2013.1_src/data/scripts/dock_solv.prm

>  <Rbt.Receptor>
prm/blind_docking_20.prm

>  <SCORE>
-7.02846

>  <SCORE.INTER>
-10.9002

>  <SCORE.INTER.CONST>
1

>  <SCORE.INTER.POLAR>
-1.46594

>  <SCORE.INTER.ROT>
10

>  <SCORE.INTER.SOLV>
10.4539

>  <SCORE.INTER.VDW>
-16.1317

>  <SCORE.INTER.norm>
-0.473921

>  <SCORE.INTRA>
-3.893

>  <SCORE.INTRA.DIHEDRAL>
-7.87959

>  <SCORE.INTRA.DIHEDRAL.0>
23.4151

>  <SCORE.INTRA.POLAR>
-1.07172

>  <SCORE.INTRA.POLAR.0>
0

>  <SCORE.INTRA.REPUL>
0.137995

>  <SCORE.INTRA.REPUL.0>
0

>  <SCORE.INTRA.SOLV>
1.32161

>  <SCORE.INTRA.SOLV.lig_0>
-17.3568

>  <SCORE.INTRA.VDW>
2.33986

>  <SCORE.INTRA.VDW.0>
1.0768

>  <SCORE.INTRA.norm>
-0.169261

>  <SCORE.RESTR>
7.76472

>  <SCORE.RESTR.CAVITY>
7.76472

>  <SCORE.RESTR.norm>
0.337597

>  <SCORE.SYSTEM>
0

>  <SCORE.SYSTEM.CONST>
0

>  <SCORE.SYSTEM.DIHEDRAL>
0

>  <SCORE.SYSTEM.SOLV>
0

>  <SCORE.SYSTEM.norm>
0

>  <SCORE.heavy>
23

>  <SCORE.norm>
-0.305585

>  <RMSD>
17.059

$$$$
1uui_lig
 OpenBabel11021811413D
libRbt.so/2013.1/901 2013/11/27
 23 24  0  0  0  0  0  0  0  0999 V2000
   -6.8871   -0.8128  -14.8220 C   0  0  0  0  0  0  0  0  0  0  0  0
   -7.4128    0.8396  -12.4887 O   0  0  0  0  0  0  0  0  0  0  0  0
   -7.6958   -4.8202  -11.8642 O   0  0  0  0  0  0  0  0  0  0  0  0
   -8.6544    1.3360  -13.0042 C   0  0  0  0  0  0  0  0  0  0  0  0
   -6.5387   -5.2838  -11.1640 C   0  0  0  0  0  0  0  0  0  0  0  0
   -5.4176   -0.9423  -15.0927 N   0  0  0  0  0  0  0  0  0  0  0  0
   -9.7474    1.1368  -11.9531 C   0  0  0  0  0  0  0  0  0  0  0  0
   -4.6120   -0.3362  -13.9980 C   0  0  0  0  0  0  0  0  0  0  0  0
   -5.0573   -0.3031  -16.3858 C   0  0  0  0  0  0  0  0  0  0  0  0
  -10.9804    1.9709  -12.3152 C   0  0  0  0  0  0  0  0  0  0  0  0
   -4.8976    1.1667  -13.8381 C   0  0  0  0  0  0  0  0  0  0  0  0
   -5.4099    1.1942  -16.3961 C   0  0  0  0  0  0  0  0  0  0  0  0
  -11.5557    1.4760  -13.5859 N   0  0  0  0  0  0  0  0  0  0  0  0
   -5.6292    1.7293  -15.0162 N   0  0  0  0  0  0  0  0  0  0  0  0
   -6.3373    2.9356  -14.8620 C   0  0  0  0  0  0  0  0  0  0  0  0
   -7.6667    3.0062  -15.1565 N   0  0  0  0  0  0  0  0  0  0  0  0
   -5.6846    4.0902  -14.5449 N   0  0  0  0  0  0  0  0  0  0  0  0
   -7.4794   -0.5808  -12.3335 C   0  0  0  0  0  0  0  0  0  0  0  0
   -7.2307   -1.4298  -13.4464 C   0  0  0  0  0  0  0  0  0  0  0  0
   -7.3026   -2.8418  -13.2883 C   0  0  0  0  0  0  0  0  0  0  0  0
   -7.6222   -3.4003  -12.0209 C   0  0  0  0  0  0  0  0  0  0  0  0
   -7.8687   -2.5499  -10.9112 C   0  0  0  0  0  0  0  0  0  0  0  0
   -7.7983   -1.1406  -11.0681 C   0  0  0  0  0  0  0  0  0  0  0  0
  2  4  1  0  0  0  0
  3  5  1  0  0  0  0
  4  7  1  0  0  0  0
  6  1  1  0  0  0  0
  7 10  1  0  0  0  0
  8  6  1  0  0  0  0
  8 11  1  0  0  0  0
  9  6  1  0  0  0  0
 10 13  1  0  0  0  0
 11 14  1  0  0  0  0
 12  9  1  0  0  0  0
 14 12  1  0  0  0  0
 14 15  1  0  0  0  0
 15 16  1  0  0  0  0
 15 17  1  0  0  0  0
 18  2  1  0  0  0  0
 18 23  2  0  0  0  0
 19  1  1  0  0  0  0
 19 18  1  0  0  0  0
 20 19  2  0  0  0  0
 21  3  1  0  0  0  0
 21 20  1  0  0  0  0
 22 21  2  0  0  0  0
 22 23  1  0  0  0  0
M  END
>  <CHROM.1>
66.84391988,165.31870194,-55.45906012,64.40326377,-50.45484546,-123.87589867
-68.61882101,-179.74064763,83.33050888,103.72431894,105.29836814,-7.22175025
-0.09650801,-13.48975323,-1.70016342,0.50504265,-0.40356339

>  <Name>
1uui_lig

>  <RI>
0

>  <Rbt.Current_Directory>
/home/itssahil/PROJECTS/Mol_Feturizer/New_Systems/rnas/1uui

>  <Rbt.Executable>
rbdock ($Id: //depot/dev/client3/rdock/2013.1/src/exe/rbdock.cxx#4 $)

>  <Rbt.Library>
libRbt.so (2013.1, Build901 2013/11/27)

>  <Rbt.Parameter_File>
/export/apps/rDock/src/rDock_2013.1_src/data/scripts/dock_solv.prm

>  <Rbt.Receptor>
prm/blind_docking_20.prm

>  <SCORE>
-4.24606

>  <SCORE.INTER>
-4.30116

>  <SCORE.INTER.CONST>
1

>  <SCORE.INTER.POLAR>
-1.04855

>  <SCORE.INTER.ROT>
10

>  <SCORE.INTER.SOLV>
12.2897

>  <SCORE.INTER.VDW>
-13.7355

>  <SCORE.INTER.norm>
-0.187007

>  <SCORE.INTRA>
-4.47211

>  <SCORE.INTRA.DIHEDRAL>
-8.57361

>  <SCORE.INTRA.DIHEDRAL.0>
23.4151

>  <SCORE.INTRA.POLAR>
0

>  <SCORE.INTRA.POLAR.0>
0

>  <SCORE.INTRA.REPUL>
0

>  <SCORE.INTRA.REPUL.0>
0

>  <SCORE.INTRA.SOLV>
1.48924

>  <SCORE.INTRA.SOLV.lig_0>
-17.3568

>  <SCORE.INTRA.VDW>
-0.929922

>  <SCORE.INTRA.VDW.0>
1.0768

>  <SCORE.INTRA.norm>
-0.194439

>  <SCORE.RESTR>
4.52721

>  <SCORE.RESTR.CAVITY>
4.52721

>  <SCORE.RESTR.norm>
0.196835

>  <SCORE.SYSTEM>
0

>  <SCORE.SYSTEM.CONST>
0

>  <SCORE.SYSTEM.DIHEDRAL>
0

>  <SCORE.SYSTEM.SOLV>
0

>  <SCORE.SYSTEM.norm>
0

>  <SCORE.heavy>
23

>  <SCORE.norm>
-0.184611

>  <RMSD>
17.196

$$$$
1uui_lig
 OpenBabel11021811413D
libRbt.so/2013.1/901 2013/11/27
 23 24  0  0  0  0  0  0  0  0999 V2000
   -7.0268    0.6652  -15.0706 C   0  0  0  0  0  0  0  0  0  0  0  0
   -6.9398   -1.7417  -13.4424 O   0  0  0  0  0  0  0  0  0  0  0  0
  -10.6139    2.3541  -11.9493 O   0  0  0  0  0  0  0  0  0  0  0  0
   -7.6409   -2.9675  -13.6871 C   0  0  0  0  0  0  0  0  0  0  0  0
  -11.9197    2.0255  -12.4298 C   0  0  0  0  0  0  0  0  0  0  0  0
   -5.8422   -0.2498  -14.9750 N   0  0  0  0  0  0  0  0  0  0  0  0
   -7.2668   -3.9818  -12.6052 C   0  0  0  0  0  0  0  0  0  0  0  0
   -4.9210    0.1725  -13.8851 C   0  0  0  0  0  0  0  0  0  0  0  0
   -5.0998   -0.2939  -16.2624 C   0  0  0  0  0  0  0  0  0  0  0  0
   -7.9404   -3.6076  -11.2811 C   0  0  0  0  0  0  0  0  0  0  0  0
   -4.3645    1.5873  -14.1184 C   0  0  0  0  0  0  0  0  0  0  0  0
   -4.5900    1.0987  -16.6712 C   0  0  0  0  0  0  0  0  0  0  0  0
   -9.3970   -3.8495  -11.3824 N   0  0  0  0  0  0  0  0  0  0  0  0
   -4.5889    2.0563  -15.5217 N   0  0  0  0  0  0  0  0  0  0  0  0
   -4.5463    3.4371  -15.7904 C   0  0  0  0  0  0  0  0  0  0  0  0
   -5.4523    4.2854  -15.2261 N   0  0  0  0  0  0  0  0  0  0  0  0
   -3.6864    3.9387  -16.7223 N   0  0  0  0  0  0  0  0  0  0  0  0
   -7.8636   -0.7143  -13.0720 C   0  0  0  0  0  0  0  0  0  0  0  0
   -7.9416    0.4812  -13.8375 C   0  0  0  0  0  0  0  0  0  0  0  0
   -8.8587    1.5021  -13.4626 C   0  0  0  0  0  0  0  0  0  0  0  0
   -9.6936    1.3258  -12.3259 C   0  0  0  0  0  0  0  0  0  0  0  0
   -9.6143    0.1304  -11.5642 C   0  0  0  0  0  0  0  0  0  0  0  0
   -8.6986   -0.8886  -11.9368 C   0  0  0  0  0  0  0  0  0  0  0  0
  2  4  1  0  0  0  0
  3  5  1  0  0  0  0
  4  7  1  0  0  0  0
  6  1  1  0  0  0  0
  7 10  1  0  0  0  0
  8  6  1  0  0  0  0
  8 11  1  0  0  0  0
  9  6  1  0  0  0  0
 10 13  1  0  0  0  0
 11 14  1  0  0  0  0
 12  9  1  0  0  0  0
 14 12  1  0  0  0  0
 14 15  1  0  0  0  0
 15 16  1  0  0  0  0
 15 17  1  0  0  0  0
 18  2  1  0  0  0  0
 18 23  2  0  0  0  0
 19  1  1  0  0  0  0
 19 18  1  0  0  0  0
 20 19  2  0  0  0  0
 21  3  1  0  0  0  0
 21 20  1  0  0  0  0
 22 21  2  0  0  0  0
 22 23  1  0  0  0  0
M  END
>  <CHROM.1>
-112.45504441,73.44440777,-69.34918950,70.56337116,-50.48081775,-63.16802791
17.42681804,108.45033941,-121.82876667,-20.85175993,99.12880834,-7.14181970
0.29541297,-13.80377137,0.77266907,0.53231774,-0.24117060

>  <Name>
1uui_lig

>  <RI>
0

>  <Rbt.Current_Directory>
/home/itssahil/PROJECTS/Mol_Feturizer/New_Systems/rnas/1uui

>  <Rbt.Executable>
rbdock ($Id: //depot/dev/client3/rdock/2013.1/src/exe/rbdock.cxx#4 $)

>  <Rbt.Library>
libRbt.so (2013.1, Build901 2013/11/27)

>  <Rbt.Parameter_File>
/export/apps/rDock/src/rDock_2013.1_src/data/scripts/dock_solv.prm

>  <Rbt.Receptor>
prm/blind_docking_20.prm

>  <SCORE>
-4.49822

>  <SCORE.INTER>
-9.42279

>  <SCORE.INTER.CONST>
1

>  <SCORE.INTER.POLAR>
-1.25437

>  <SCORE.INTER.ROT>
10

>  <SCORE.INTER.SOLV>
10.2573

>  <SCORE.INTER.VDW>
-15.7864

>  <SCORE.INTER.norm>
-0.409686

>  <SCORE.INTRA>
-2.38036

>  <SCORE.INTRA.DIHEDRAL>
-2.46401

>  <SCORE.INTRA.DIHEDRAL.0>
23.4151

>  <SCORE.INTRA.POLAR>
-0.529543

>  <SCORE.INTRA.POLAR.0>
0

>  <SCORE.INTRA.REPUL>
0

>  <SCORE.INTRA.REPUL.0>
0

>  <SCORE.INTRA.SOLV>
0.932641

>  <SCORE.INTRA.SOLV.lig_0>
-17.3568

>  <SCORE.INTRA.VDW>
0.185769

>  <SCORE.INTRA.VDW.0>
1.0768

>  <SCORE.INTRA.norm>
-0.103494

>  <SCORE.RESTR>
7.30493

>  <SCORE.RESTR.CAVITY>
7.30493

>  <SCORE.RESTR.norm>
0.317606

>  <SCORE.SYSTEM>
0

>  <SCORE.SYSTEM.CONST>
0

>  <SCORE.SYSTEM.DIHEDRAL>
0

>  <SCORE.SYSTEM.SOLV>
0

>  <SCORE.SYSTEM.norm>
0

>  <SCORE.heavy>
23

>  <SCORE.norm>
-0.195575

>  <RMSD>
17.223

$$$$
1uui_lig
 OpenBabel11021811413D
libRbt.so/2013.1/901 2013/11/27
 23 24  0  0  0  0  0  0  0  0999 V2000
   -7.2251    0.0517  -14.1136 C   0  0  0  0  0  0  0  0  0  0  0  0
   -8.0582    1.2376  -11.5935 O   0  0  0  0  0  0  0  0  0  0  0  0
   -7.4747   -4.4296  -11.8078 O   0  0  0  0  0  0  0  0  0  0  0  0
   -9.0235    1.6668  -12.5620 C   0  0  0  0  0  0  0  0  0  0  0  0
   -6.6877   -4.8721  -10.6992 C   0  0  0  0  0  0  0  0  0  0  0  0
   -6.6703   -0.8035  -15.2137 N   0  0  0  0  0  0  0  0  0  0  0  0
  -10.3129    0.8668  -12.3712 C   0  0  0  0  0  0  0  0  0  0  0  0
   -5.2108   -1.0329  -15.0349 C   0  0  0  0  0  0  0  0  0  0  0  0
   -6.9157   -0.1844  -16.5430 C   0  0  0  0  0  0  0  0  0  0  0  0
  -11.4859    1.5987  -13.0310 C   0  0  0  0  0  0  0  0  0  0  0  0
   -4.4147    0.2831  -15.0587 C   0  0  0  0  0  0  0  0  0  0  0  0
   -6.2648    1.2052  -16.6503 C   0  0  0  0  0  0  0  0  0  0  0  0
  -12.7514    0.9102  -12.6918 N   0  0  0  0  0  0  0  0  0  0  0  0
   -5.2238    1.4209  -15.5977 N   0  0  0  0  0  0  0  0  0  0  0  0
   -4.8282    2.7372  -15.2957 C   0  0  0  0  0  0  0  0  0  0  0  0
   -5.3693    3.4019  -14.2354 N   0  0  0  0  0  0  0  0  0  0  0  0
   -3.9981    3.4237  -16.1319 N   0  0  0  0  0  0  0  0  0  0  0  0
   -7.9074   -0.1838  -11.6486 C   0  0  0  0  0  0  0  0  0  0  0  0
   -7.5026   -0.8092  -12.8595 C   0  0  0  0  0  0  0  0  0  0  0  0
   -7.3584   -2.2236  -12.9107 C   0  0  0  0  0  0  0  0  0  0  0  0
   -7.6185   -3.0075  -11.7539 C   0  0  0  0  0  0  0  0  0  0  0  0
   -8.0213   -2.3799  -10.5459 C   0  0  0  0  0  0  0  0  0  0  0  0
   -8.1667   -0.9686  -10.4939 C   0  0  0  0  0  0  0  0  0  0  0  0
  2  4  1  0  0  0  0
  3  5  1  0  0  0  0
  4  7  1  0  0  0  0
  6  1  1  0  0  0  0
  7 10  1  0  0  0  0
  8  6  1  0  0  0  0
  8 11  1  0  0  0  0
  9  6  1  0  0  0  0
 10 13  1  0  0  0  0
 11 14  1  0  0  0  0
 12  9  1  0  0  0  0
 14 12  1  0  0  0  0
 14 15  1  0  0  0  0
 15 16  1  0  0  0  0
 15 17  1  0  0  0  0
 18  2  1  0  0  0  0
 18 23  2  0  0  0  0
 19  1  1  0  0  0  0
 19 18  1  0  0  0  0
 20 19  2  0  0  0  0
 21  3  1  0  0  0  0
 21 20  1  0  0  0  0
 22 21  2  0  0  0  0
 22 23  1  0  0  0  0
M  END
>  <CHROM.1>
52.69665703,160.67663023,-81.33238959,-172.70988745,173.09493342,-94.47173983
-103.68302288,-139.66034769,58.64972188,173.75198654,130.85630072,-7.34475472
-0.04453293,-13.45607699,-0.93043367,-0.45597540,2.64810846

>  <Name>
1uui_lig

>  <RI>
0

>  <Rbt.Current_Directory>
/home/itssahil/PROJECTS/Mol_Feturizer/New_Systems/rnas/1uui

>  <Rbt.Executable>
rbdock ($Id: //depot/dev/client3/rdock/2013.1/src/exe/rbdock.cxx#4 $)

>  <Rbt.Library>
libRbt.so (2013.1, Build901 2013/11/27)

>  <Rbt.Parameter_File>
/export/apps/rDock/src/rDock_2013.1_src/data/scripts/dock_solv.prm

>  <Rbt.Receptor>
prm/blind_docking_20.prm

>  <SCORE>
-9.65727

>  <SCORE.INTER>
-15.7417

>  <SCORE.INTER.CONST>
1

>  <SCORE.INTER.POLAR>
-1.59276

>  <SCORE.INTER.ROT>
10

>  <SCORE.INTER.SOLV>
10.6198

>  <SCORE.INTER.VDW>
-18.9918

>  <SCORE.INTER.norm>
-0.68442

>  <SCORE.INTRA>
-1.63795

>  <SCORE.INTRA.DIHEDRAL>
-9.98179

>  <SCORE.INTRA.DIHEDRAL.0>
23.4151

>  <SCORE.INTRA.POLAR>
0

>  <SCORE.INTRA.POLAR.0>
0

>  <SCORE.INTRA.REPUL>
0

>  <SCORE.INTRA.REPUL.0>
0

>  <SCORE.INTRA.SOLV>
-0.0765685

>  <SCORE.INTRA.SOLV.lig_0>
-17.3568

>  <SCORE.INTRA.VDW>
3.39123

>  <SCORE.INTRA.VDW.0>
1.0768

>  <SCORE.INTRA.norm>
-0.0712154

>  <SCORE.RESTR>
7.72235

>  <SCORE.RESTR.CAVITY>
7.72235

>  <SCORE.RESTR.norm>
0.335755

>  <SCORE.SYSTEM>
0

>  <SCORE.SYSTEM.CONST>
0

>  <SCORE.SYSTEM.DIHEDRAL>
0

>  <SCORE.SYSTEM.SOLV>
0

>  <SCORE.SYSTEM.norm>
0

>  <SCORE.heavy>
23

>  <SCORE.norm>
-0.419881

>  <RMSD>
17.240

$$$$
