3c44_lig
 OpenBabel02221317003D

 42 45  0  0  1  0  0  0  0  0999 V2000
   37.0430   34.3840  -12.9210 C   0  0  2  0  0  0  0  0  0  0  0  0
   36.1360   34.2070  -14.0200 O   0  0  0  0  0  0  0  0  0  0  0  0
   32.7190   36.2440  -15.1880 C   0  0  2  0  0  0  0  0  0  0  0  0
   31.4270   36.9110  -15.4110 N   0  0  0  0  0  0  0  0  0  0  0  0
   36.4300   37.9910  -13.0990 C   0  0  1  0  0  0  0  0  0  0  0  0
   38.3070   41.8150  -12.9150 C   0  0  1  0  0  0  0  0  0  0  0  0
   38.4720   34.1110  -13.4020 C   0  0  2  0  0  0  0  0  0  0  0  0
   38.8010   34.9450  -14.5670 N   0  0  0  0  0  0  0  0  0  0  0  0
   32.5110   34.7670  -14.8410 C   0  0  0  0  0  0  0  0  0  0  0  0
   36.7270   38.7570  -11.8090 C   0  0  2  0  0  0  0  0  0  0  0  0
   35.6560   39.6570  -11.5180 O   0  0  0  0  0  0  0  0  0  0  0  0
   37.7490   42.9620  -13.7640 C   0  0  2  0  0  0  0  0  0  0  0  0
   37.7280   42.5290  -15.1680 N   0  0  0  0  0  0  0  0  0  0  0  0
   38.6630   32.6380  -13.7720 C   0  0  1  0  0  0  0  0  0  0  0  0
   40.0440   32.4000  -14.0610 O   0  0  0  0  0  0  0  0  0  0  0  0
   33.8910   34.1040  -14.7770 C   0  0  2  0  0  0  0  0  0  0  0  0
   33.7360   32.6950  -14.3850 N   0  0  0  0  0  0  0  0  0  0  0  0
   37.9400   39.5660  -12.2640 C   0  0  2  0  0  0  0  0  0  0  0  0
   37.5460   40.6190  -13.1590 O   0  0  0  0  0  0  0  0  0  0  0  0
   38.6250   44.2160  -13.6450 C   0  0  1  0  0  0  0  0  0  0  0  0
   38.4870   44.8000  -12.3470 O   0  0  0  0  0  0  0  0  0  0  0  0
   38.2240   31.7490  -12.6070 C   0  0  2  0  0  0  0  0  0  0  0  0
   38.3000   30.3750  -12.9960 O   0  0  0  0  0  0  0  0  0  0  0  0
   34.8420   34.7910  -13.7890 C   0  0  2  0  0  0  0  0  0  0  0  0
   38.7080   38.5040  -13.0350 C   0  0  2  0  0  0  0  0  0  0  0  0
   37.7300   37.5820  -13.5630 O   0  0  0  0  0  0  0  0  0  0  0  0
   40.0990   43.8810  -13.8790 C   0  0  2  0  0  0  0  0  0  0  0  0
   40.2760   43.5060  -15.2480 O   0  0  0  0  0  0  0  0  0  0  0  0
   36.7870   32.0940  -12.2130 C   0  0  2  0  0  0  0  0  0  0  0  0
   36.6910   33.4860  -11.8520 O   0  0  0  0  0  0  0  0  0  0  0  0
   34.9070   36.3100  -13.9340 C   0  0  2  0  0  0  0  0  0  0  0  0
   35.5840   36.8680  -12.7960 O   0  0  0  0  0  0  0  0  0  0  0  0
   39.6810   37.7930  -12.0920 C   0  0  0  0  0  0  0  0  0  0  0  0
   40.4230   36.8210  -12.8320 O   0  0  0  0  0  0  0  0  0  0  0  0
   40.5010   42.7300  -12.9530 C   0  0  1  0  0  0  0  0  0  0  0  0
   39.6820   41.5890  -13.2640 O   0  0  0  0  0  0  0  0  0  0  0  0
   36.4100   31.2160  -11.0170 C   0  0  0  0  0  0  0  0  0  0  0  0
   35.0230   31.4850  -10.6110 O   0  0  0  0  0  0  0  0  0  0  0  0
   33.5010   36.9100  -14.0530 C   0  0  1  0  0  0  0  0  0  0  0  0
   33.5880   38.3190  -14.2770 O   0  0  0  0  0  0  0  0  0  0  0  0
   41.9730   42.3470  -13.1110 C   0  0  0  0  0  0  0  0  0  0  0  0
   42.1900   41.8060  -14.4600 N   0  0  0  0  0  0  0  0  0  0  0  0
  1  2  1  6  0  0  0
  1  7  1  0  0  0  0
  1 30  1  0  0  0  0
  3  4  1  1  0  0  0
  3  9  1  0  0  0  0
  3 39  1  0  0  0  0
  5 10  1  0  0  0  0
  5 26  1  0  0  0  0
  5 32  1  1  0  0  0
  6 12  1  0  0  0  0
  6 36  1  0  0  0  0
  6 19  1  6  0  0  0
  7  8  1  6  0  0  0
  7 14  1  0  0  0  0
  9 16  1  0  0  0  0
 10 11  1  6  0  0  0
 10 18  1  0  0  0  0
 12 13  1  6  0  0  0
 12 20  1  0  0  0  0
 14 15  1  1  0  0  0
 14 22  1  0  0  0  0
 16 17  1  1  0  0  0
 16 24  1  0  0  0  0
 18 19  1  6  0  0  0
 18 25  1  0  0  0  0
 20 21  1  1  0  0  0
 20 27  1  0  0  0  0
 22 23  1  6  0  0  0
 22 29  1  0  0  0  0
 24  2  1  6  0  0  0
 24 31  1  0  0  0  0
 25 26  1  0  0  0  0
 25 33  1  1  0  0  0
 27 28  1  6  0  0  0
 27 35  1  0  0  0  0
 29 30  1  0  0  0  0
 29 37  1  1  0  0  0
 31 32  1  1  0  0  0
 31 39  1  0  0  0  0
 33 34  1  0  0  0  0
 35 36  1  0  0  0  0
 35 41  1  6  0  0  0
 37 38  1  0  0  0  0
 39 40  1  6  0  0  0
 41 42  1  0  0  0  0
M  END
$$$$
