3c44_lig
 OpenBabel11021811463D
libRbt.so/2013.1/901 2013/11/27
 42 45  0  0  0  0  0  0  0  0999 V2000
   37.2749   34.0087  -12.6911 C   0  0  2  0  0  0  0  0  0  0  0  0
   36.3097   33.8447  -13.7415 O   0  0  0  0  0  0  0  0  0  0  0  0
   33.2004   36.3339  -14.8926 C   0  0  2  0  0  0  0  0  0  0  0  0
   32.0062   37.1639  -15.1140 N   0  0  0  0  0  0  0  0  0  0  0  0
   36.7170   37.7721  -12.5449 C   0  0  1  0  0  0  0  0  0  0  0  0
   38.5115   41.5636  -12.0247 C   0  0  1  0  0  0  0  0  0  0  0  0
   38.6429   33.5301  -13.1888 C   0  0  2  0  0  0  0  0  0  0  0  0
   39.0169   34.2162  -14.4339 N   0  0  0  0  0  0  0  0  0  0  0  0
   32.8038   34.8810  -14.6148 C   0  0  0  0  0  0  0  0  0  0  0  0
   37.3255   38.1605  -11.1966 C   0  0  2  0  0  0  0  0  0  0  0  0
   36.3332   38.7745  -10.3719 O   0  0  0  0  0  0  0  0  0  0  0  0
   37.7321   42.8348  -12.3776 C   0  0  2  0  0  0  0  0  0  0  0  0
   37.0460   42.6149  -13.6582 N   0  0  0  0  0  0  0  0  0  0  0  0
   38.6500   32.0185  -13.4296 C   0  0  1  0  0  0  0  0  0  0  0  0
   39.9821   31.5967  -13.7379 O   0  0  0  0  0  0  0  0  0  0  0  0
   34.0900   34.0506  -14.5502 C   0  0  2  0  0  0  0  0  0  0  0  0
   33.7531   32.6568  -14.2233 N   0  0  0  0  0  0  0  0  0  0  0  0
   38.3125   39.2306  -11.6588 C   0  0  2  0  0  0  0  0  0  0  0  0
   37.6227   40.4327  -12.0387 O   0  0  0  0  0  0  0  0  0  0  0  0
   38.6720   44.0392  -12.5191 C   0  0  1  0  0  0  0  0  0  0  0  0
   39.1819   44.4274  -11.2407 O   0  0  0  0  0  0  0  0  0  0  0  0
   38.1606   31.2908  -12.1762 C   0  0  2  0  0  0  0  0  0  0  0  0
   38.0640   29.8889  -12.4414 O   0  0  0  0  0  0  0  0  0  0  0  0
   35.0913   34.5742  -13.5130 C   0  0  2  0  0  0  0  0  0  0  0  0
   38.8873   38.5611  -12.8971 C   0  0  2  0  0  0  0  0  0  0  0  0
   37.8521   37.7054  -13.4279 O   0  0  0  0  0  0  0  0  0  0  0  0
   39.8493   43.7125  -13.4393 C   0  0  2  0  0  0  0  0  0  0  0  0
   39.3600   43.5408  -14.7724 O   0  0  0  0  0  0  0  0  0  0  0  0
   36.7893   31.8340  -11.7714 C   0  0  2  0  0  0  0  0  0  0  0  0
   36.8670   33.2536  -11.5351 O   0  0  0  0  0  0  0  0  0  0  0  0
   35.3458   36.0781  -13.5903 C   0  0  2  0  0  0  0  0  0  0  0  0
   36.0555   36.5016  -12.4148 O   0  0  0  0  0  0  0  0  0  0  0  0
   40.1259   37.7503  -12.5099 C   0  0  0  0  0  0  0  0  0  0  0  0
   40.7937   37.3208  -13.6984 O   0  0  0  0  0  0  0  0  0  0  0  0
   40.5241   42.4292  -12.9478 C   0  0  1  0  0  0  0  0  0  0  0  0
   39.5584   41.3638  -12.9877 O   0  0  0  0  0  0  0  0  0  0  0  0
   36.3640   31.1127  -10.4900 C   0  0  0  0  0  0  0  0  0  0  0  0
   34.8974   31.0699  -10.3982 O   0  0  0  0  0  0  0  0  0  0  0  0
   34.0276   36.8516  -13.7132 C   0  0  1  0  0  0  0  0  0  0  0  0
   34.2925   38.2469  -13.8737 O   0  0  0  0  0  0  0  0  0  0  0  0
   41.7297   42.0439  -13.8061 C   0  0  0  0  0  0  0  0  0  0  0  0
   41.2737   41.7291  -15.1672 N   0  0  0  0  0  0  0  0  0  0  0  0
  1  2  1  6  0  0  0
  1  7  1  0  0  0  0
  1 30  1  0  0  0  0
  3  4  1  1  0  0  0
  3  9  1  0  0  0  0
  3 39  1  0  0  0  0
  5 10  1  0  0  0  0
  5 26  1  0  0  0  0
  5 32  1  1  0  0  0
  6 12  1  0  0  0  0
  6 36  1  0  0  0  0
  6 19  1  6  0  0  0
  7  8  1  6  0  0  0
  7 14  1  0  0  0  0
  9 16  1  0  0  0  0
 10 11  1  1  0  0  0
 10 18  1  0  0  0  0
 12 13  1  6  0  0  0
 12 20  1  0  0  0  0
 14 15  1  1  0  0  0
 14 22  1  0  0  0  0
 16 17  1  1  0  0  0
 16 24  1  0  0  0  0
 18 19  1  6  0  0  0
 18 25  1  0  0  0  0
 20 21  1  1  0  0  0
 20 27  1  0  0  0  0
 22 23  1  6  0  0  0
 22 29  1  0  0  0  0
 24  2  1  6  0  0  0
 24 31  1  0  0  0  0
 25 26  1  0  0  0  0
 25 33  1  1  0  0  0
 27 28  1  6  0  0  0
 27 35  1  0  0  0  0
 29 30  1  0  0  0  0
 29 37  1  1  0  0  0
 31 32  1  1  0  0  0
 31 39  1  0  0  0  0
 33 34  1  0  0  0  0
 35 36  1  0  0  0  0
 35 41  1  6  0  0  0
 37 38  1  0  0  0  0
 39 40  1  6  0  0  0
 41 42  1  0  0  0  0
M  END
>  <CHROM.1>
-164.61641520,175.06825811,-177.68344791,159.95395653,-168.09216629,-169.87497880
-152.86595024,161.37116681,-64.29049384,37.37657637,37.15444795,-12.98112671
-1.85911280,-0.13047097,-0.06208377

>  <Name>
3c44_lig

>  <RI>
0

>  <Rbt.Current_Directory>
/home/itssahil/PROJECTS/Mol_Feturizer/New_Systems/rnas/3c44

>  <Rbt.Executable>
rbdock ($Id: //depot/dev/client3/rdock/2013.1/src/exe/rbdock.cxx#4 $)

>  <Rbt.Library>
libRbt.so (2013.1, Build901 2013/11/27)

>  <Rbt.Parameter_File>
/export/apps/rDock/src/rDock_2013.1_src/data/scripts/dock_solv.prm

>  <Rbt.Receptor>
prm/pocket_docking_2.prm

>  <SCORE>
-23.9863

>  <SCORE.INTER>
-21.1885

>  <SCORE.INTER.CONST>
1

>  <SCORE.INTER.POLAR>
-1.69596

>  <SCORE.INTER.ROT>
9

>  <SCORE.INTER.SOLV>
19.7947

>  <SCORE.INTER.VDW>
-24.6707

>  <SCORE.INTER.norm>
-0.504488

>  <SCORE.INTRA>
-2.80896

>  <SCORE.INTRA.DIHEDRAL>
-6.54352

>  <SCORE.INTRA.DIHEDRAL.0>
14.8538

>  <SCORE.INTRA.POLAR>
0

>  <SCORE.INTRA.POLAR.0>
0

>  <SCORE.INTRA.REPUL>
0.00250007

>  <SCORE.INTRA.REPUL.0>
0

>  <SCORE.INTRA.SOLV>
-2.39094

>  <SCORE.INTRA.SOLV.lig_0>
-100.951

>  <SCORE.INTRA.VDW>
1.64577

>  <SCORE.INTRA.VDW.0>
-5.71388

>  <SCORE.INTRA.norm>
-0.06688

>  <SCORE.RESTR>
0.0111063

>  <SCORE.RESTR.CAVITY>
0.0111063

>  <SCORE.RESTR.norm>
0.000264437

>  <SCORE.SYSTEM>
0

>  <SCORE.SYSTEM.CONST>
0

>  <SCORE.SYSTEM.DIHEDRAL>
0

>  <SCORE.SYSTEM.SOLV>
0

>  <SCORE.SYSTEM.norm>
0

>  <SCORE.heavy>
42

>  <SCORE.norm>
-0.571103

>  <RMSD>
0.814

$$$$
3c44_lig
 OpenBabel11021811463D
libRbt.so/2013.1/901 2013/11/27
 42 45  0  0  0  0  0  0  0  0999 V2000
   37.6024   34.8182  -12.7792 C   0  0  2  0  0  0  0  0  0  0  0  0
   36.6570   34.6940  -13.8528 O   0  0  0  0  0  0  0  0  0  0  0  0
   33.2155   36.7835  -14.8423 C   0  0  2  0  0  0  0  0  0  0  0  0
   31.9224   37.4670  -14.9997 N   0  0  0  0  0  0  0  0  0  0  0  0
   36.8099   38.6127  -12.8161 C   0  0  1  0  0  0  0  0  0  0  0  0
   38.2625   42.5688  -12.8230 C   0  0  1  0  0  0  0  0  0  0  0  0
   39.0087   34.5280  -13.3140 C   0  0  2  0  0  0  0  0  0  0  0  0
   39.3196   35.3886  -14.4645 N   0  0  0  0  0  0  0  0  0  0  0  0
   33.0066   35.3034  -14.5093 C   0  0  0  0  0  0  0  0  0  0  0  0
   36.9760   39.3585  -11.4912 C   0  0  2  0  0  0  0  0  0  0  0  0
   35.7619   40.0328  -11.1549 O   0  0  0  0  0  0  0  0  0  0  0  0
   37.5794   43.6382  -13.6818 C   0  0  2  0  0  0  0  0  0  0  0  0
   37.2509   43.0432  -14.9846 N   0  0  0  0  0  0  0  0  0  0  0  0
   39.1537   33.0627  -13.7324 C   0  0  1  0  0  0  0  0  0  0  0  0
   40.5189   32.8028  -14.0729 O   0  0  0  0  0  0  0  0  0  0  0  0
   34.3808   34.6256  -14.5145 C   0  0  2  0  0  0  0  0  0  0  0  0
   34.2275   33.2123  -14.1377 N   0  0  0  0  0  0  0  0  0  0  0  0
   38.0160   40.3962  -11.9091 C   0  0  2  0  0  0  0  0  0  0  0  0
   37.4267   41.4003  -12.7514 O   0  0  0  0  0  0  0  0  0  0  0  0
   38.5034   44.8424  -13.9055 C   0  0  1  0  0  0  0  0  0  0  0  0
   38.6595   45.5839  -12.6928 O   0  0  0  0  0  0  0  0  0  0  0  0
   38.7315   32.1495  -12.5800 C   0  0  2  0  0  0  0  0  0  0  0  0
   38.7633   30.7863  -13.0108 O   0  0  0  0  0  0  0  0  0  0  0  0
   35.3804   35.2874  -13.5578 C   0  0  2  0  0  0  0  0  0  0  0  0
   38.9565   39.5300  -12.7320 C   0  0  2  0  0  0  0  0  0  0  0  0
   38.1576   38.4706  -13.3019 O   0  0  0  0  0  0  0  0  0  0  0  0
   39.8838   44.3937  -14.3883 C   0  0  2  0  0  0  0  0  0  0  0  0
   39.7582   43.8485  -15.7048 O   0  0  0  0  0  0  0  0  0  0  0  0
   37.3162   32.5145  -12.1297 C   0  0  2  0  0  0  0  0  0  0  0  0
   37.2639   33.8970  -11.7257 O   0  0  0  0  0  0  0  0  0  0  0  0
   35.4555   36.8077  -13.6823 C   0  0  2  0  0  0  0  0  0  0  0  0
   36.1864   37.3410  -12.5659 O   0  0  0  0  0  0  0  0  0  0  0  0
   40.0531   38.9653  -11.8264 C   0  0  0  0  0  0  0  0  0  0  0  0
   40.8851   38.0894  -12.5903 O   0  0  0  0  0  0  0  0  0  0  0  0
   40.4304   43.3390  -13.4226 C   0  0  1  0  0  0  0  0  0  0  0  0
   39.5258   42.2205  -13.4114 O   0  0  0  0  0  0  0  0  0  0  0  0
   36.9572   31.6100  -10.9480 C   0  0  0  0  0  0  0  0  0  0  0  0
   35.5042   31.6238  -10.7252 O   0  0  0  0  0  0  0  0  0  0  0  0
   34.0523   37.4237  -13.7318 C   0  0  1  0  0  0  0  0  0  0  0  0
   34.1448   38.8351  -13.9379 O   0  0  0  0  0  0  0  0  0  0  0  0
   41.8229   42.8519  -13.8251 C   0  0  0  0  0  0  0  0  0  0  0  0
   42.2875   41.8555  -12.8499 N   0  0  0  0  0  0  0  0  0  0  0  0
  1  2  1  6  0  0  0
  1  7  1  0  0  0  0
  1 30  1  0  0  0  0
  3  4  1  1  0  0  0
  3  9  1  0  0  0  0
  3 39  1  0  0  0  0
  5 10  1  0  0  0  0
  5 26  1  0  0  0  0
  5 32  1  1  0  0  0
  6 12  1  0  0  0  0
  6 36  1  0  0  0  0
  6 19  1  6  0  0  0
  7  8  1  6  0  0  0
  7 14  1  0  0  0  0
  9 16  1  0  0  0  0
 10 11  1  6  0  0  0
 10 18  1  0  0  0  0
 12 13  1  6  0  0  0
 12 20  1  0  0  0  0
 14 15  1  1  0  0  0
 14 22  1  0  0  0  0
 16 17  1  1  0  0  0
 16 24  1  0  0  0  0
 18 19  1  6  0  0  0
 18 25  1  0  0  0  0
 20 21  1  1  0  0  0
 20 27  1  0  0  0  0
 22 23  1  6  0  0  0
 22 29  1  0  0  0  0
 24  2  1  6  0  0  0
 24 31  1  0  0  0  0
 25 26  1  0  0  0  0
 25 33  1  1  0  0  0
 27 28  1  6  0  0  0
 27 35  1  0  0  0  0
 29 30  1  0  0  0  0
 29 37  1  1  0  0  0
 31 32  1  1  0  0  0
 31 39  1  0  0  0  0
 33 34  1  0  0  0  0
 35 36  1  0  0  0  0
 35 41  1  6  0  0  0
 37 38  1  0  0  0  0
 39 40  1  6  0  0  0
 41 42  1  0  0  0  0
M  END
>  <CHROM.1>
-164.14890807,154.08486737,-177.75521789,162.83156889,-158.99753111,176.57154856
-163.33765417,155.02158858,179.44406933,37.53690788,37.94074629,-13.22621648
-1.81919560,-0.13473247,-0.09204199

>  <Name>
3c44_lig

>  <RI>
0

>  <Rbt.Current_Directory>
/home/itssahil/PROJECTS/Mol_Feturizer/New_Systems/rnas/3c44

>  <Rbt.Executable>
rbdock ($Id: //depot/dev/client3/rdock/2013.1/src/exe/rbdock.cxx#4 $)

>  <Rbt.Library>
libRbt.so (2013.1, Build901 2013/11/27)

>  <Rbt.Parameter_File>
/export/apps/rDock/src/rDock_2013.1_src/data/scripts/dock_solv.prm

>  <Rbt.Receptor>
prm/pocket_docking_2.prm

>  <SCORE>
-19.435

>  <SCORE.INTER>
-17.4391

>  <SCORE.INTER.CONST>
1

>  <SCORE.INTER.POLAR>
-0.938083

>  <SCORE.INTER.ROT>
9

>  <SCORE.INTER.SOLV>
24.6333

>  <SCORE.INTER.VDW>
-26.3102

>  <SCORE.INTER.norm>
-0.415216

>  <SCORE.INTRA>
-2.05763

>  <SCORE.INTRA.DIHEDRAL>
-3.57758

>  <SCORE.INTRA.DIHEDRAL.0>
14.8538

>  <SCORE.INTRA.POLAR>
0

>  <SCORE.INTRA.POLAR.0>
0

>  <SCORE.INTRA.REPUL>
0.0165794

>  <SCORE.INTRA.REPUL.0>
0

>  <SCORE.INTRA.SOLV>
-1.93293

>  <SCORE.INTRA.SOLV.lig_0>
-100.951

>  <SCORE.INTRA.VDW>
0.614724

>  <SCORE.INTRA.VDW.0>
-5.71388

>  <SCORE.INTRA.norm>
-0.0489912

>  <SCORE.RESTR>
0.0617309

>  <SCORE.RESTR.CAVITY>
0.0617309

>  <SCORE.RESTR.norm>
0.00146978

>  <SCORE.SYSTEM>
0

>  <SCORE.SYSTEM.CONST>
0

>  <SCORE.SYSTEM.DIHEDRAL>
0

>  <SCORE.SYSTEM.SOLV>
0

>  <SCORE.SYSTEM.norm>
0

>  <SCORE.heavy>
42

>  <SCORE.norm>
-0.462738

>  <RMSD>
0.829

$$$$
3c44_lig
 OpenBabel11021811463D
libRbt.so/2013.1/901 2013/11/27
 42 45  0  0  0  0  0  0  0  0999 V2000
   37.2968   34.0377  -12.7328 C   0  0  2  0  0  0  0  0  0  0  0  0
   36.3046   33.8282  -13.7494 O   0  0  0  0  0  0  0  0  0  0  0  0
   33.1945   36.3127  -14.9086 C   0  0  2  0  0  0  0  0  0  0  0  0
   32.0016   37.1443  -15.1312 N   0  0  0  0  0  0  0  0  0  0  0  0
   36.7100   37.7880  -12.6047 C   0  0  1  0  0  0  0  0  0  0  0  0
   38.4729   41.5952  -12.1616 C   0  0  1  0  0  0  0  0  0  0  0  0
   38.6704   33.6415  -13.2844 C   0  0  2  0  0  0  0  0  0  0  0  0
   38.9594   34.3581  -14.5350 N   0  0  0  0  0  0  0  0  0  0  0  0
   32.7947   34.8659  -14.6049 C   0  0  0  0  0  0  0  0  0  0  0  0
   37.3657   38.1735  -11.2779 C   0  0  2  0  0  0  0  0  0  0  0  0
   36.3978   38.7641  -10.4084 O   0  0  0  0  0  0  0  0  0  0  0  0
   37.6511   42.8712  -12.3717 C   0  0  2  0  0  0  0  0  0  0  0  0
   36.8157   42.6905  -13.5670 N   0  0  0  0  0  0  0  0  0  0  0  0
   38.7536   32.1347  -13.5412 C   0  0  1  0  0  0  0  0  0  0  0  0
   40.0952   31.7915  -13.9016 O   0  0  0  0  0  0  0  0  0  0  0  0
   34.0781   34.0312  -14.5399 C   0  0  2  0  0  0  0  0  0  0  0  0
   33.7387   32.6439  -14.1886 N   0  0  0  0  0  0  0  0  0  0  0  0
   38.3168   39.2634  -11.7684 C   0  0  2  0  0  0  0  0  0  0  0  0
   37.5939   40.4579  -12.1086 O   0  0  0  0  0  0  0  0  0  0  0  0
   38.5617   44.0880  -12.5826 C   0  0  1  0  0  0  0  0  0  0  0  0
   39.2213   44.4353  -11.3623 O   0  0  0  0  0  0  0  0  0  0  0  0
   38.3520   31.3700  -12.2785 C   0  0  2  0  0  0  0  0  0  0  0  0
   38.3248   29.9672  -12.5548 O   0  0  0  0  0  0  0  0  0  0  0  0
   35.0914   34.5663  -13.5205 C   0  0  2  0  0  0  0  0  0  0  0  0
   38.8520   38.6146  -13.0351 C   0  0  2  0  0  0  0  0  0  0  0  0
   37.8099   37.7476  -13.5328 O   0  0  0  0  0  0  0  0  0  0  0  0
   39.6201   43.8040  -13.6497 C   0  0  2  0  0  0  0  0  0  0  0  0
   38.9735   43.6749  -14.9191 O   0  0  0  0  0  0  0  0  0  0  0  0
   36.9682   31.8315  -11.8190 C   0  0  2  0  0  0  0  0  0  0  0  0
   36.9745   33.2512  -11.5708 O   0  0  0  0  0  0  0  0  0  0  0  0
   35.3513   36.0678  -13.6231 C   0  0  2  0  0  0  0  0  0  0  0  0
   36.0739   36.5061  -12.4610 O   0  0  0  0  0  0  0  0  0  0  0  0
   40.1175   37.8200  -12.7055 C   0  0  0  0  0  0  0  0  0  0  0  0
   39.8074   36.8366  -11.7158 O   0  0  0  0  0  0  0  0  0  0  0  0
   40.3550   42.5100  -13.2900 C   0  0  1  0  0  0  0  0  0  0  0  0
   39.3962   41.4383  -13.2509 O   0  0  0  0  0  0  0  0  0  0  0  0
   36.6312   31.0764  -10.5306 C   0  0  0  0  0  0  0  0  0  0  0  0
   35.1956   31.1949  -10.2373 O   0  0  0  0  0  0  0  0  0  0  0  0
   34.0351   36.8448  -13.7451 C   0  0  1  0  0  0  0  0  0  0  0  0
   34.3041   38.2364  -13.9294 O   0  0  0  0  0  0  0  0  0  0  0  0
   41.4492   42.1654  -14.3011 C   0  0  0  0  0  0  0  0  0  0  0  0
   40.8343   41.9103  -15.6112 N   0  0  0  0  0  0  0  0  0  0  0  0
  1  2  1  6  0  0  0
  1  7  1  0  0  0  0
  1 30  1  0  0  0  0
  3  4  1  1  0  0  0
  3  9  1  0  0  0  0
  3 39  1  0  0  0  0
  5 10  1  0  0  0  0
  5 26  1  0  0  0  0
  5 32  1  1  0  0  0
  6 12  1  0  0  0  0
  6 36  1  0  0  0  0
  6 19  1  6  0  0  0
  7  8  1  6  0  0  0
  7 14  1  0  0  0  0
  9 16  1  0  0  0  0
 10 11  1  1  0  0  0
 10 18  1  0  0  0  0
 12 13  1  6  0  0  0
 12 20  1  0  0  0  0
 14 15  1  1  0  0  0
 14 22  1  0  0  0  0
 16 17  1  1  0  0  0
 16 24  1  0  0  0  0
 18 19  1  6  0  0  0
 18 25  1  0  0  0  0
 20 21  1  1  0  0  0
 20 27  1  0  0  0  0
 22 23  1  6  0  0  0
 22 29  1  0  0  0  0
 24  2  1  6  0  0  0
 24 31  1  0  0  0  0
 25 26  1  0  0  0  0
 25 33  1  1  0  0  0
 27 28  1  6  0  0  0
 27 35  1  0  0  0  0
 29 30  1  0  0  0  0
 29 37  1  1  0  0  0
 31 32  1  1  0  0  0
 31 39  1  0  0  0  0
 33 34  1  0  0  0  0
 35 36  1  0  0  0  0
 35 41  1  6  0  0  0
 37 38  1  0  0  0  0
 39 40  1  6  0  0  0
 41 42  1  0  0  0  0
M  END
>  <CHROM.1>
-160.21271904,176.49481658,-173.74832489,161.84412680,-169.97324077,58.26699791
-164.82040584,162.93363397,-63.62500369,37.33734171,37.18531324,-13.01723053
-1.82516225,-0.17720110,-0.08372770

>  <Name>
3c44_lig

>  <RI>
0

>  <Rbt.Current_Directory>
/home/itssahil/PROJECTS/Mol_Feturizer/New_Systems/rnas/3c44

>  <Rbt.Executable>
rbdock ($Id: //depot/dev/client3/rdock/2013.1/src/exe/rbdock.cxx#4 $)

>  <Rbt.Library>
libRbt.so (2013.1, Build901 2013/11/27)

>  <Rbt.Parameter_File>
/export/apps/rDock/src/rDock_2013.1_src/data/scripts/dock_solv.prm

>  <Rbt.Receptor>
prm/pocket_docking_2.prm

>  <SCORE>
-23.9968

>  <SCORE.INTER>
-21.1289

>  <SCORE.INTER.CONST>
1

>  <SCORE.INTER.POLAR>
-1.74465

>  <SCORE.INTER.ROT>
9

>  <SCORE.INTER.SOLV>
19.955

>  <SCORE.INTER.VDW>
-24.5221

>  <SCORE.INTER.norm>
-0.50307

>  <SCORE.INTRA>
-2.87217

>  <SCORE.INTRA.DIHEDRAL>
-8.29057

>  <SCORE.INTRA.DIHEDRAL.0>
14.8538

>  <SCORE.INTRA.POLAR>
0

>  <SCORE.INTRA.POLAR.0>
0

>  <SCORE.INTRA.REPUL>
0.0055429

>  <SCORE.INTRA.REPUL.0>
0

>  <SCORE.INTRA.SOLV>
-1.57837

>  <SCORE.INTRA.SOLV.lig_0>
-100.951

>  <SCORE.INTRA.VDW>
2.03458

>  <SCORE.INTRA.VDW.0>
-5.71388

>  <SCORE.INTRA.norm>
-0.0683851

>  <SCORE.RESTR>
0.00430013

>  <SCORE.RESTR.CAVITY>
0.00430013

>  <SCORE.RESTR.norm>
0.000102384

>  <SCORE.SYSTEM>
0

>  <SCORE.SYSTEM.CONST>
0

>  <SCORE.SYSTEM.DIHEDRAL>
0

>  <SCORE.SYSTEM.SOLV>
0

>  <SCORE.SYSTEM.norm>
0

>  <SCORE.heavy>
42

>  <SCORE.norm>
-0.571353

>  <RMSD>
0.853

$$$$
3c44_lig
 OpenBabel11021811463D
libRbt.so/2013.1/901 2013/11/27
 42 45  0  0  0  0  0  0  0  0999 V2000
   37.2715   33.9837  -12.6568 C   0  0  2  0  0  0  0  0  0  0  0  0
   36.2967   33.7771  -13.6907 O   0  0  0  0  0  0  0  0  0  0  0  0
   33.1731   36.2325  -14.8754 C   0  0  2  0  0  0  0  0  0  0  0  0
   31.9742   37.0524  -15.1080 N   0  0  0  0  0  0  0  0  0  0  0  0
   36.6965   37.7126  -12.5514 C   0  0  1  0  0  0  0  0  0  0  0  0
   38.5553   41.4632  -12.2356 C   0  0  1  0  0  0  0  0  0  0  0  0
   38.6495   33.5597  -13.1757 C   0  0  2  0  0  0  0  0  0  0  0  0
   38.9747   34.2566  -14.4285 N   0  0  0  0  0  0  0  0  0  0  0  0
   32.7851   34.7810  -14.5790 C   0  0  0  0  0  0  0  0  0  0  0  0
   37.3272   38.1097  -11.2158 C   0  0  2  0  0  0  0  0  0  0  0  0
   36.3520   38.7410  -10.3839 O   0  0  0  0  0  0  0  0  0  0  0  0
   37.7788   42.7734  -12.4025 C   0  0  2  0  0  0  0  0  0  0  0  0
   36.8380   42.6131  -13.5199 N   0  0  0  0  0  0  0  0  0  0  0  0
   38.7144   32.0489  -13.4129 C   0  0  1  0  0  0  0  0  0  0  0  0
   40.0574   31.6808  -13.7420 O   0  0  0  0  0  0  0  0  0  0  0  0
   34.0762   33.9592  -14.5030 C   0  0  2  0  0  0  0  0  0  0  0  0
   33.7476   32.5678  -14.1583 N   0  0  0  0  0  0  0  0  0  0  0  0
   38.3168   39.1662  -11.7030 C   0  0  2  0  0  0  0  0  0  0  0  0
   37.6321   40.3703  -12.0859 O   0  0  0  0  0  0  0  0  0  0  0  0
   38.7238   43.9414  -12.7138 C   0  0  1  0  0  0  0  0  0  0  0  0
   39.4994   44.2771  -11.5602 O   0  0  0  0  0  0  0  0  0  0  0  0
   38.2757   31.3058  -12.1498 C   0  0  2  0  0  0  0  0  0  0  0  0
   38.2321   29.9003  -12.4099 O   0  0  0  0  0  0  0  0  0  0  0  0
   35.0739   34.5022  -13.4723 C   0  0  2  0  0  0  0  0  0  0  0  0
   38.8683   38.4788  -12.9422 C   0  0  2  0  0  0  0  0  0  0  0  0
   37.8184   37.6268  -13.4494 O   0  0  0  0  0  0  0  0  0  0  0  0
   39.6740   43.5893  -13.8595 C   0  0  2  0  0  0  0  0  0  0  0  0
   38.9173   43.4703  -15.0675 O   0  0  0  0  0  0  0  0  0  0  0  0
   36.8902   31.7939  -11.7238 C   0  0  2  0  0  0  0  0  0  0  0  0
   36.9137   33.2162  -11.4923 O   0  0  0  0  0  0  0  0  0  0  0  0
   35.3194   36.0065  -13.5689 C   0  0  2  0  0  0  0  0  0  0  0  0
   36.0259   36.4494  -12.3987 O   0  0  0  0  0  0  0  0  0  0  0  0
   40.1052   37.6613  -12.5638 C   0  0  0  0  0  0  0  0  0  0  0  0
   40.7039   37.1418  -13.7532 O   0  0  0  0  0  0  0  0  0  0  0  0
   40.3759   42.2678  -13.5358 C   0  0  1  0  0  0  0  0  0  0  0  0
   39.3751   41.2441  -13.3947 O   0  0  0  0  0  0  0  0  0  0  0  0
   36.5157   31.0598  -10.4337 C   0  0  0  0  0  0  0  0  0  0  0  0
   35.0595   31.0977  -10.2363 O   0  0  0  0  0  0  0  0  0  0  0  0
   33.9966   36.7704  -13.7024 C   0  0  1  0  0  0  0  0  0  0  0  0
   34.2532   38.1651  -13.8808 O   0  0  0  0  0  0  0  0  0  0  0  0
   41.3637   41.8544  -14.6274 C   0  0  0  0  0  0  0  0  0  0  0  0
   42.4051   42.8837  -14.7526 N   0  0  0  0  0  0  0  0  0  0  0  0
  1  2  1  6  0  0  0
  1  7  1  0  0  0  0
  1 30  1  0  0  0  0
  3  4  1  1  0  0  0
  3  9  1  0  0  0  0
  3 39  1  0  0  0  0
  5 10  1  0  0  0  0
  5 26  1  0  0  0  0
  5 32  1  1  0  0  0
  6 12  1  0  0  0  0
  6 36  1  0  0  0  0
  6 19  1  6  0  0  0
  7  8  1  6  0  0  0
  7 14  1  0  0  0  0
  9 16  1  0  0  0  0
 10 11  1  1  0  0  0
 10 18  1  0  0  0  0
 12 13  1  6  0  0  0
 12 20  1  0  0  0  0
 14 15  1  1  0  0  0
 14 22  1  0  0  0  0
 16 17  1  1  0  0  0
 16 24  1  0  0  0  0
 18 19  1  6  0  0  0
 18 25  1  0  0  0  0
 20 21  1  1  0  0  0
 20 27  1  0  0  0  0
 22 23  1  6  0  0  0
 22 29  1  0  0  0  0
 24  2  1  6  0  0  0
 24 31  1  0  0  0  0
 25 26  1  0  0  0  0
 25 33  1  1  0  0  0
 27 28  1  6  0  0  0
 27 35  1  0  0  0  0
 29 30  1  0  0  0  0
 29 37  1  1  0  0  0
 31 32  1  1  0  0  0
 31 39  1  0  0  0  0
 33 34  1  0  0  0  0
 35 36  1  0  0  0  0
 35 41  1  6  0  0  0
 37 38  1  0  0  0  0
 39 40  1  6  0  0  0
 41 42  1  0  0  0  0
M  END
>  <CHROM.1>
-162.14129941,176.31428104,-170.24573622,166.13463717,-169.37803758,-173.55763851
-159.59993602,160.49006049,61.10289453,37.38848258,37.11957692,-13.03576745
-1.85983720,-0.11173695,-0.08810827

>  <Name>
3c44_lig

>  <RI>
0

>  <Rbt.Current_Directory>
/home/itssahil/PROJECTS/Mol_Feturizer/New_Systems/rnas/3c44

>  <Rbt.Executable>
rbdock ($Id: //depot/dev/client3/rdock/2013.1/src/exe/rbdock.cxx#4 $)

>  <Rbt.Library>
libRbt.so (2013.1, Build901 2013/11/27)

>  <Rbt.Parameter_File>
/export/apps/rDock/src/rDock_2013.1_src/data/scripts/dock_solv.prm

>  <Rbt.Receptor>
prm/pocket_docking_2.prm

>  <SCORE>
-25.2375

>  <SCORE.INTER>
-21.1364

>  <SCORE.INTER.CONST>
1

>  <SCORE.INTER.POLAR>
-1.71134

>  <SCORE.INTER.ROT>
9

>  <SCORE.INTER.SOLV>
20.6737

>  <SCORE.INTER.VDW>
-24.8777

>  <SCORE.INTER.norm>
-0.503248

>  <SCORE.INTRA>
-4.10113

>  <SCORE.INTRA.DIHEDRAL>
-7.76815

>  <SCORE.INTRA.DIHEDRAL.0>
14.8538

>  <SCORE.INTRA.POLAR>
0

>  <SCORE.INTRA.POLAR.0>
0

>  <SCORE.INTRA.REPUL>
0

>  <SCORE.INTRA.REPUL.0>
0

>  <SCORE.INTRA.SOLV>
-3.55878

>  <SCORE.INTRA.SOLV.lig_0>
-100.951

>  <SCORE.INTRA.VDW>
1.56234

>  <SCORE.INTRA.VDW.0>
-5.71388

>  <SCORE.INTRA.norm>
-0.0976459

>  <SCORE.RESTR>
0

>  <SCORE.RESTR.CAVITY>
0

>  <SCORE.RESTR.norm>
0

>  <SCORE.SYSTEM>
0

>  <SCORE.SYSTEM.CONST>
0

>  <SCORE.SYSTEM.DIHEDRAL>
0

>  <SCORE.SYSTEM.SOLV>
0

>  <SCORE.SYSTEM.norm>
0

>  <SCORE.heavy>
42

>  <SCORE.norm>
-0.600894

>  <RMSD>
0.869

$$$$
3c44_lig
 OpenBabel11021811463D
libRbt.so/2013.1/901 2013/11/27
 42 45  0  0  0  0  0  0  0  0999 V2000
   37.1844   33.9613  -12.6982 C   0  0  2  0  0  0  0  0  0  0  0  0
   36.2202   33.7277  -13.7362 O   0  0  0  0  0  0  0  0  0  0  0  0
   33.0842   36.1244  -15.0054 C   0  0  2  0  0  0  0  0  0  0  0  0
   31.8805   36.9285  -15.2669 N   0  0  0  0  0  0  0  0  0  0  0  0
   36.5733   37.7068  -12.7086 C   0  0  1  0  0  0  0  0  0  0  0  0
   38.4142   41.4949  -12.3122 C   0  0  1  0  0  0  0  0  0  0  0  0
   38.5810   33.6146  -13.2246 C   0  0  2  0  0  0  0  0  0  0  0  0
   38.8715   34.3504  -14.4636 N   0  0  0  0  0  0  0  0  0  0  0  0
   32.7051   34.6798  -14.6670 C   0  0  0  0  0  0  0  0  0  0  0  0
   37.3135   38.0813  -11.4237 C   0  0  2  0  0  0  0  0  0  0  0  0
   36.4092   38.6877  -10.4984 O   0  0  0  0  0  0  0  0  0  0  0  0
   37.5934   42.7887  -12.3140 C   0  0  2  0  0  0  0  0  0  0  0  0
   36.6317   42.7235  -13.4231 N   0  0  0  0  0  0  0  0  0  0  0  0
   38.7188   32.1135  -13.4908 C   0  0  1  0  0  0  0  0  0  0  0  0
   40.0779   31.8173  -13.8264 O   0  0  0  0  0  0  0  0  0  0  0  0
   34.0016   33.8698  -14.5617 C   0  0  2  0  0  0  0  0  0  0  0  0
   33.6813   32.4870  -14.1766 N   0  0  0  0  0  0  0  0  0  0  0  0
   38.2515   39.1553  -11.9712 C   0  0  2  0  0  0  0  0  0  0  0  0
   37.5294   40.3616  -12.2687 O   0  0  0  0  0  0  0  0  0  0  0  0
   38.4937   44.0154  -12.5100 C   0  0  1  0  0  0  0  0  0  0  0  0
   39.2858   44.2451  -11.3418 O   0  0  0  0  0  0  0  0  0  0  0  0
   38.3172   31.3258  -12.2424 C   0  0  2  0  0  0  0  0  0  0  0  0
   38.3416   29.9252  -12.5296 O   0  0  0  0  0  0  0  0  0  0  0  0
   34.9915   34.4504  -13.5441 C   0  0  2  0  0  0  0  0  0  0  0  0
   38.6991   38.4978  -13.2671 C   0  0  2  0  0  0  0  0  0  0  0  0
   37.6149   37.6482  -13.7007 O   0  0  0  0  0  0  0  0  0  0  0  0
   39.4269   43.8267  -13.7072 C   0  0  2  0  0  0  0  0  0  0  0  0
   38.6457   43.8189  -14.9054 O   0  0  0  0  0  0  0  0  0  0  0  0
   36.9100   31.7381  -11.8077 C   0  0  2  0  0  0  0  0  0  0  0  0
   36.8647   33.1551  -11.5488 O   0  0  0  0  0  0  0  0  0  0  0  0
   35.2269   35.9528  -13.6850 C   0  0  2  0  0  0  0  0  0  0  0  0
   35.9259   36.4356  -12.5260 O   0  0  0  0  0  0  0  0  0  0  0  0
   39.9688   37.6823  -13.0131 C   0  0  0  0  0  0  0  0  0  0  0  0
   39.6629   36.6060  -12.1238 O   0  0  0  0  0  0  0  0  0  0  0  0
   40.1772   42.5016  -13.5494 C   0  0  1  0  0  0  0  0  0  0  0  0
   39.2126   41.4354  -13.5050 O   0  0  0  0  0  0  0  0  0  0  0  0
   36.5721   30.9620  -10.5322 C   0  0  0  0  0  0  0  0  0  0  0  0
   35.1252   31.0147  -10.2779 O   0  0  0  0  0  0  0  0  0  0  0  0
   33.8994   36.7030  -13.8461 C   0  0  1  0  0  0  0  0  0  0  0  0
   34.1471   38.0936  -14.0654 O   0  0  0  0  0  0  0  0  0  0  0  0
   41.1511   42.2472  -14.7006 C   0  0  0  0  0  0  0  0  0  0  0  0
   41.7376   40.9080  -14.5511 N   0  0  0  0  0  0  0  0  0  0  0  0
  1  2  1  6  0  0  0
  1  7  1  0  0  0  0
  1 30  1  0  0  0  0
  3  4  1  1  0  0  0
  3  9  1  0  0  0  0
  3 39  1  0  0  0  0
  5 10  1  0  0  0  0
  5 26  1  0  0  0  0
  5 32  1  1  0  0  0
  6 12  1  0  0  0  0
  6 36  1  0  0  0  0
  6 19  1  6  0  0  0
  7  8  1  6  0  0  0
  7 14  1  0  0  0  0
  9 16  1  0  0  0  0
 10 11  1  1  0  0  0
 10 18  1  0  0  0  0
 12 13  1  6  0  0  0
 12 20  1  0  0  0  0
 14 15  1  1  0  0  0
 14 22  1  0  0  0  0
 16 17  1  1  0  0  0
 16 24  1  0  0  0  0
 18 19  1  6  0  0  0
 18 25  1  0  0  0  0
 20 21  1  1  0  0  0
 20 27  1  0  0  0  0
 22 23  1  6  0  0  0
 22 29  1  0  0  0  0
 24  2  1  6  0  0  0
 24 31  1  0  0  0  0
 25 26  1  0  0  0  0
 25 33  1  1  0  0  0
 27 28  1  6  0  0  0
 27 35  1  0  0  0  0
 29 30  1  0  0  0  0
 29 37  1  1  0  0  0
 31 32  1  1  0  0  0
 31 39  1  0  0  0  0
 33 34  1  0  0  0  0
 35 36  1  0  0  0  0
 35 41  1  6  0  0  0
 37 38  1  0  0  0  0
 39 40  1  6  0  0  0
 41 42  1  0  0  0  0
M  END
>  <CHROM.1>
-158.73032003,-178.16971326,-167.31711832,159.09706720,-168.76894240,64.99407234
-164.00238591,161.27817216,-174.65874122,37.25616785,37.07890377,-13.06388885
-1.82684211,-0.17616777,-0.08458851

>  <Name>
3c44_lig

>  <RI>
0

>  <Rbt.Current_Directory>
/home/itssahil/PROJECTS/Mol_Feturizer/New_Systems/rnas/3c44

>  <Rbt.Executable>
rbdock ($Id: //depot/dev/client3/rdock/2013.1/src/exe/rbdock.cxx#4 $)

>  <Rbt.Library>
libRbt.so (2013.1, Build901 2013/11/27)

>  <Rbt.Parameter_File>
/export/apps/rDock/src/rDock_2013.1_src/data/scripts/dock_solv.prm

>  <Rbt.Receptor>
prm/pocket_docking_2.prm

>  <SCORE>
-23.5982

>  <SCORE.INTER>
-20.589

>  <SCORE.INTER.CONST>
1

>  <SCORE.INTER.POLAR>
-1.79329

>  <SCORE.INTER.ROT>
9

>  <SCORE.INTER.SOLV>
20.8227

>  <SCORE.INTER.VDW>
-24.2893

>  <SCORE.INTER.norm>
-0.490215

>  <SCORE.INTRA>
-3.01908

>  <SCORE.INTRA.DIHEDRAL>
-6.53303

>  <SCORE.INTRA.DIHEDRAL.0>
14.8538

>  <SCORE.INTRA.POLAR>
0

>  <SCORE.INTRA.POLAR.0>
0

>  <SCORE.INTRA.REPUL>
0

>  <SCORE.INTRA.REPUL.0>
0

>  <SCORE.INTRA.SOLV>
-1.79406

>  <SCORE.INTRA.SOLV.lig_0>
-100.951

>  <SCORE.INTRA.VDW>
1.14446

>  <SCORE.INTRA.VDW.0>
-5.71388

>  <SCORE.INTRA.norm>
-0.0718829

>  <SCORE.RESTR>
0.00986408

>  <SCORE.RESTR.CAVITY>
0.00986408

>  <SCORE.RESTR.norm>
0.000234859

>  <SCORE.SYSTEM>
0

>  <SCORE.SYSTEM.CONST>
0

>  <SCORE.SYSTEM.DIHEDRAL>
0

>  <SCORE.SYSTEM.SOLV>
0

>  <SCORE.SYSTEM.norm>
0

>  <SCORE.heavy>
42

>  <SCORE.norm>
-0.561863

>  <RMSD>
0.871

$$$$
3c44_lig
 OpenBabel11021811463D
libRbt.so/2013.1/901 2013/11/27
 42 45  0  0  0  0  0  0  0  0999 V2000
   37.2394   33.9875  -12.6315 C   0  0  2  0  0  0  0  0  0  0  0  0
   36.2677   33.7687  -13.6659 O   0  0  0  0  0  0  0  0  0  0  0  0
   33.1896   36.2539  -14.9062 C   0  0  2  0  0  0  0  0  0  0  0  0
   32.0036   37.0863  -15.1597 N   0  0  0  0  0  0  0  0  0  0  0  0
   36.6665   37.7222  -12.5283 C   0  0  1  0  0  0  0  0  0  0  0  0
   38.4535   41.5206  -12.0238 C   0  0  1  0  0  0  0  0  0  0  0  0
   38.6267   33.6067  -13.1589 C   0  0  2  0  0  0  0  0  0  0  0  0
   38.9303   34.3279  -14.4034 N   0  0  0  0  0  0  0  0  0  0  0  0
   32.7808   34.8084  -14.6085 C   0  0  0  0  0  0  0  0  0  0  0  0
   37.2851   38.1147  -11.1858 C   0  0  2  0  0  0  0  0  0  0  0  0
   36.2980   38.7276  -10.3540 O   0  0  0  0  0  0  0  0  0  0  0  0
   37.6632   42.7921  -12.3504 C   0  0  2  0  0  0  0  0  0  0  0  0
   36.9564   42.5823  -13.6215 N   0  0  0  0  0  0  0  0  0  0  0  0
   38.7307   32.1012  -13.4157 C   0  0  1  0  0  0  0  0  0  0  0  0
   40.0820   31.7728  -13.7525 O   0  0  0  0  0  0  0  0  0  0  0  0
   34.0611   33.9723  -14.5104 C   0  0  2  0  0  0  0  0  0  0  0  0
   33.7116   32.5864  -14.1637 N   0  0  0  0  0  0  0  0  0  0  0  0
   38.2653   39.1867  -11.6581 C   0  0  2  0  0  0  0  0  0  0  0  0
   37.5691   40.3862  -12.0344 O   0  0  0  0  0  0  0  0  0  0  0  0
   38.5957   44.0018  -12.4954 C   0  0  1  0  0  0  0  0  0  0  0  0
   39.1257   44.3790  -11.2220 O   0  0  0  0  0  0  0  0  0  0  0  0
   38.3148   31.3307  -12.1613 C   0  0  2  0  0  0  0  0  0  0  0  0
   38.3075   29.9280  -12.4394 O   0  0  0  0  0  0  0  0  0  0  0  0
   35.0504   34.5088  -13.4682 C   0  0  2  0  0  0  0  0  0  0  0  0
   38.8316   38.5165  -12.9000 C   0  0  2  0  0  0  0  0  0  0  0  0
   37.7944   37.6571  -13.4206 O   0  0  0  0  0  0  0  0  0  0  0  0
   39.7586   43.6894  -13.4387 C   0  0  2  0  0  0  0  0  0  0  0  0
   39.2475   43.5291  -14.7651 O   0  0  0  0  0  0  0  0  0  0  0  0
   36.9181   31.7767  -11.7260 C   0  0  2  0  0  0  0  0  0  0  0  0
   36.9048   33.1961  -11.4762 O   0  0  0  0  0  0  0  0  0  0  0  0
   35.3145   36.0097  -13.5685 C   0  0  2  0  0  0  0  0  0  0  0  0
   36.0095   36.4502  -12.3905 O   0  0  0  0  0  0  0  0  0  0  0  0
   40.0756   37.7098  -12.5216 C   0  0  0  0  0  0  0  0  0  0  0  0
   41.1025   38.6073  -12.0940 O   0  0  0  0  0  0  0  0  0  0  0  0
   40.4467   42.4039  -12.9718 C   0  0  1  0  0  0  0  0  0  0  0  0
   39.4848   41.3349  -13.0063 O   0  0  0  0  0  0  0  0  0  0  0  0
   36.5662   31.0165  -10.4447 C   0  0  0  0  0  0  0  0  0  0  0  0
   35.1118   31.0324  -10.2320 O   0  0  0  0  0  0  0  0  0  0  0  0
   34.0026   36.7880  -13.7243 C   0  0  1  0  0  0  0  0  0  0  0  0
   34.2778   38.1788  -13.9057 O   0  0  0  0  0  0  0  0  0  0  0  0
   41.6391   42.0324  -13.8542 C   0  0  0  0  0  0  0  0  0  0  0  0
   41.1677   41.7782  -15.2227 N   0  0  0  0  0  0  0  0  0  0  0  0
  1  2  1  6  0  0  0
  1  7  1  0  0  0  0
  1 30  1  0  0  0  0
  3  4  1  1  0  0  0
  3  9  1  0  0  0  0
  3 39  1  0  0  0  0
  5 10  1  0  0  0  0
  5 26  1  0  0  0  0
  5 32  1  1  0  0  0
  6 12  1  0  0  0  0
  6 36  1  0  0  0  0
  6 19  1  6  0  0  0
  7  8  1  6  0  0  0
  7 14  1  0  0  0  0
  9 16  1  0  0  0  0
 10 11  1  1  0  0  0
 10 18  1  0  0  0  0
 12 13  1  6  0  0  0
 12 20  1  0  0  0  0
 14 15  1  1  0  0  0
 14 22  1  0  0  0  0
 16 17  1  1  0  0  0
 16 24  1  0  0  0  0
 18 19  1  6  0  0  0
 18 25  1  0  0  0  0
 20 21  1  1  0  0  0
 20 27  1  0  0  0  0
 22 23  1  6  0  0  0
 22 29  1  0  0  0  0
 24  2  1  6  0  0  0
 24 31  1  0  0  0  0
 25 26  1  0  0  0  0
 25 33  1  1  0  0  0
 27 28  1  6  0  0  0
 27 35  1  0  0  0  0
 29 30  1  0  0  0  0
 29 37  1  1  0  0  0
 31 32  1  1  0  0  0
 31 39  1  0  0  0  0
 33 34  1  0  0  0  0
 35 36  1  0  0  0  0
 35 41  1  6  0  0  0
 37 38  1  0  0  0  0
 39 40  1  6  0  0  0
 41 42  1  0  0  0  0
M  END
>  <CHROM.1>
-159.34543120,176.30252463,-176.77614767,159.68849221,-170.41796450,-65.99316387
-160.52093202,162.09274113,-62.20319437,37.37238651,37.16219546,-12.92273647
-1.85725780,-0.18548139,-0.07801792

>  <Name>
3c44_lig

>  <RI>
0

>  <Rbt.Current_Directory>
/home/itssahil/PROJECTS/Mol_Feturizer/New_Systems/rnas/3c44

>  <Rbt.Executable>
rbdock ($Id: //depot/dev/client3/rdock/2013.1/src/exe/rbdock.cxx#4 $)

>  <Rbt.Library>
libRbt.so (2013.1, Build901 2013/11/27)

>  <Rbt.Parameter_File>
/export/apps/rDock/src/rDock_2013.1_src/data/scripts/dock_solv.prm

>  <Rbt.Receptor>
prm/pocket_docking_2.prm

>  <SCORE>
-24.4199

>  <SCORE.INTER>
-21.5102

>  <SCORE.INTER.CONST>
1

>  <SCORE.INTER.POLAR>
-1.7028

>  <SCORE.INTER.ROT>
9

>  <SCORE.INTER.SOLV>
20.1008

>  <SCORE.INTER.VDW>
-24.9644

>  <SCORE.INTER.norm>
-0.512147

>  <SCORE.INTRA>
-2.92741

>  <SCORE.INTRA.DIHEDRAL>
-7.32631

>  <SCORE.INTRA.DIHEDRAL.0>
14.8538

>  <SCORE.INTRA.POLAR>
0

>  <SCORE.INTRA.POLAR.0>
0

>  <SCORE.INTRA.REPUL>
0.00301295

>  <SCORE.INTRA.REPUL.0>
0

>  <SCORE.INTRA.SOLV>
-2.00894

>  <SCORE.INTRA.SOLV.lig_0>
-100.951

>  <SCORE.INTRA.VDW>
1.72515

>  <SCORE.INTRA.VDW.0>
-5.71388

>  <SCORE.INTRA.norm>
-0.0697003

>  <SCORE.RESTR>
0.0176741

>  <SCORE.RESTR.CAVITY>
0.0176741

>  <SCORE.RESTR.norm>
0.000420813

>  <SCORE.SYSTEM>
0

>  <SCORE.SYSTEM.CONST>
0

>  <SCORE.SYSTEM.DIHEDRAL>
0

>  <SCORE.SYSTEM.SOLV>
0

>  <SCORE.SYSTEM.norm>
0

>  <SCORE.heavy>
42

>  <SCORE.norm>
-0.581427

>  <RMSD>
0.872

$$$$
3c44_lig
 OpenBabel11021811463D
libRbt.so/2013.1/901 2013/11/27
 42 45  0  0  0  0  0  0  0  0999 V2000
   37.2758   33.9853  -12.7048 C   0  0  2  0  0  0  0  0  0  0  0  0
   36.2962   33.7793  -13.7342 O   0  0  0  0  0  0  0  0  0  0  0  0
   33.1460   36.2255  -14.8664 C   0  0  2  0  0  0  0  0  0  0  0  0
   31.9386   37.0378  -15.0812 N   0  0  0  0  0  0  0  0  0  0  0  0
   36.6609   37.6975  -12.5249 C   0  0  1  0  0  0  0  0  0  0  0  0
   38.4527   41.4912  -11.9963 C   0  0  1  0  0  0  0  0  0  0  0  0
   38.6519   33.5649  -13.2315 C   0  0  2  0  0  0  0  0  0  0  0  0
   38.9696   34.2650  -14.4845 N   0  0  0  0  0  0  0  0  0  0  0  0
   32.7727   34.7652  -14.5953 C   0  0  0  0  0  0  0  0  0  0  0  0
   37.2856   38.0797  -11.1822 C   0  0  2  0  0  0  0  0  0  0  0  0
   36.3027   38.6874  -10.3418 O   0  0  0  0  0  0  0  0  0  0  0  0
   37.6652   42.7633  -12.3270 C   0  0  2  0  0  0  0  0  0  0  0  0
   36.9681   42.5558  -13.6037 N   0  0  0  0  0  0  0  0  0  0  0  0
   38.7182   32.0547  -13.4723 C   0  0  1  0  0  0  0  0  0  0  0  0
   40.0601   31.6896  -13.8089 O   0  0  0  0  0  0  0  0  0  0  0  0
   34.0719   33.9546  -14.5375 C   0  0  2  0  0  0  0  0  0  0  0  0
   33.7575   32.5541  -14.2171 N   0  0  0  0  0  0  0  0  0  0  0  0
   38.2648   39.1541  -11.6509 C   0  0  2  0  0  0  0  0  0  0  0  0
   37.5682   40.3570  -12.0155 O   0  0  0  0  0  0  0  0  0  0  0  0
   38.5991   43.9730  -12.4629 C   0  0  1  0  0  0  0  0  0  0  0  0
   39.1194   44.3481  -11.1848 O   0  0  0  0  0  0  0  0  0  0  0  0
   38.2871   31.3081  -12.2085 C   0  0  2  0  0  0  0  0  0  0  0  0
   38.2447   29.9031  -12.4714 O   0  0  0  0  0  0  0  0  0  0  0  0
   35.0671   34.4885  -13.4997 C   0  0  2  0  0  0  0  0  0  0  0  0
   38.8251   38.4924  -12.9000 C   0  0  2  0  0  0  0  0  0  0  0  0
   37.7849   37.6378  -13.4225 O   0  0  0  0  0  0  0  0  0  0  0  0
   39.7691   43.6619  -13.3978 C   0  0  2  0  0  0  0  0  0  0  0  0
   39.2681   43.5039  -14.7283 O   0  0  0  0  0  0  0  0  0  0  0  0
   36.9030   31.7930  -11.7746 C   0  0  2  0  0  0  0  0  0  0  0  0
   36.9251   33.2148  -11.5402 O   0  0  0  0  0  0  0  0  0  0  0  0
   35.2979   35.9966  -13.5697 C   0  0  2  0  0  0  0  0  0  0  0  0
   36.0033   36.4251  -12.3935 O   0  0  0  0  0  0  0  0  0  0  0  0
   40.0700   37.6819  -12.5329 C   0  0  0  0  0  0  0  0  0  0  0  0
   41.0947   38.5741  -12.0894 O   0  0  0  0  0  0  0  0  0  0  0  0
   40.4533   42.3755  -12.9278 C   0  0  1  0  0  0  0  0  0  0  0  0
   39.4914   41.3068  -12.9713 O   0  0  0  0  0  0  0  0  0  0  0  0
   36.5362   31.0555  -10.4842 C   0  0  0  0  0  0  0  0  0  0  0  0
   35.0842   31.1171  -10.2632 O   0  0  0  0  0  0  0  0  0  0  0  0
   33.9675   36.7500  -13.6860 C   0  0  1  0  0  0  0  0  0  0  0  0
   34.2102   38.1501  -13.8399 O   0  0  0  0  0  0  0  0  0  0  0  0
   41.6523   42.0050  -13.8016 C   0  0  0  0  0  0  0  0  0  0  0  0
   41.1813   41.6714  -15.1531 N   0  0  0  0  0  0  0  0  0  0  0  0
  1  2  1  6  0  0  0
  1  7  1  0  0  0  0
  1 30  1  0  0  0  0
  3  4  1  1  0  0  0
  3  9  1  0  0  0  0
  3 39  1  0  0  0  0
  5 10  1  0  0  0  0
  5 26  1  0  0  0  0
  5 32  1  1  0  0  0
  6 12  1  0  0  0  0
  6 36  1  0  0  0  0
  6 19  1  6  0  0  0
  7  8  1  6  0  0  0
  7 14  1  0  0  0  0
  9 16  1  0  0  0  0
 10 11  1  1  0  0  0
 10 18  1  0  0  0  0
 12 13  1  6  0  0  0
 12 20  1  0  0  0  0
 14 15  1  1  0  0  0
 14 22  1  0  0  0  0
 16 17  1  1  0  0  0
 16 24  1  0  0  0  0
 18 19  1  6  0  0  0
 18 25  1  0  0  0  0
 20 21  1  1  0  0  0
 20 27  1  0  0  0  0
 22 23  1  6  0  0  0
 22 29  1  0  0  0  0
 24  2  1  6  0  0  0
 24 31  1  0  0  0  0
 25 26  1  0  0  0  0
 25 33  1  1  0  0  0
 27 28  1  6  0  0  0
 27 35  1  0  0  0  0
 29 30  1  0  0  0  0
 29 37  1  1  0  0  0
 31 32  1  1  0  0  0
 31 39  1  0  0  0  0
 33 34  1  0  0  0  0
 35 36  1  0  0  0  0
 35 41  1  6  0  0  0
 37 38  1  0  0  0  0
 39 40  1  6  0  0  0
 41 42  1  0  0  0  0
M  END
>  <CHROM.1>
-162.87572898,176.03863955,-177.44709589,159.50608802,-169.86195442,-65.37389842
-160.89966605,160.51300028,-65.71381057,37.36812439,37.13717974,-12.92501807
-1.85953960,-0.17231901,-0.06517726

>  <Name>
3c44_lig

>  <RI>
0

>  <Rbt.Current_Directory>
/home/itssahil/PROJECTS/Mol_Feturizer/New_Systems/rnas/3c44

>  <Rbt.Executable>
rbdock ($Id: //depot/dev/client3/rdock/2013.1/src/exe/rbdock.cxx#4 $)

>  <Rbt.Library>
libRbt.so (2013.1, Build901 2013/11/27)

>  <Rbt.Parameter_File>
/export/apps/rDock/src/rDock_2013.1_src/data/scripts/dock_solv.prm

>  <Rbt.Receptor>
prm/pocket_docking_2.prm

>  <SCORE>
-24.3992

>  <SCORE.INTER>
-21.0884

>  <SCORE.INTER.CONST>
1

>  <SCORE.INTER.POLAR>
-1.71389

>  <SCORE.INTER.ROT>
9

>  <SCORE.INTER.SOLV>
20.3391

>  <SCORE.INTER.VDW>
-24.7257

>  <SCORE.INTER.norm>
-0.502105

>  <SCORE.INTRA>
-3.31138

>  <SCORE.INTRA.DIHEDRAL>
-7.53563

>  <SCORE.INTRA.DIHEDRAL.0>
14.8538

>  <SCORE.INTRA.POLAR>
0

>  <SCORE.INTRA.POLAR.0>
0

>  <SCORE.INTRA.REPUL>
0

>  <SCORE.INTRA.REPUL.0>
0

>  <SCORE.INTRA.SOLV>
-2.22156

>  <SCORE.INTRA.SOLV.lig_0>
-100.951

>  <SCORE.INTRA.VDW>
1.56721

>  <SCORE.INTRA.VDW.0>
-5.71388

>  <SCORE.INTRA.norm>
-0.0788425

>  <SCORE.RESTR>
0.000578505

>  <SCORE.RESTR.CAVITY>
0.000578505

>  <SCORE.RESTR.norm>
1.37739e-05

>  <SCORE.SYSTEM>
0

>  <SCORE.SYSTEM.CONST>
0

>  <SCORE.SYSTEM.DIHEDRAL>
0

>  <SCORE.SYSTEM.SOLV>
0

>  <SCORE.SYSTEM.norm>
0

>  <SCORE.heavy>
42

>  <SCORE.norm>
-0.580934

>  <RMSD>
0.874

$$$$
3c44_lig
 OpenBabel11021811463D
libRbt.so/2013.1/901 2013/11/27
 42 45  0  0  0  0  0  0  0  0999 V2000
   37.2216   33.9884  -12.7015 C   0  0  2  0  0  0  0  0  0  0  0  0
   36.2451   33.7603  -13.7293 O   0  0  0  0  0  0  0  0  0  0  0  0
   33.1228   36.1992  -14.9511 C   0  0  2  0  0  0  0  0  0  0  0  0
   31.9239   37.0155  -15.1964 N   0  0  0  0  0  0  0  0  0  0  0  0
   36.6248   37.7190  -12.6325 C   0  0  1  0  0  0  0  0  0  0  0  0
   38.4661   41.4906  -12.2686 C   0  0  1  0  0  0  0  0  0  0  0  0
   38.6052   33.5939  -13.2288 C   0  0  2  0  0  0  0  0  0  0  0  0
   38.9076   34.2969  -14.4839 N   0  0  0  0  0  0  0  0  0  0  0  0
   32.7349   34.7513  -14.6373 C   0  0  0  0  0  0  0  0  0  0  0  0
   37.3169   38.0958  -11.3217 C   0  0  2  0  0  0  0  0  0  0  0  0
   36.3792   38.7045  -10.4318 O   0  0  0  0  0  0  0  0  0  0  0  0
   37.6634   42.7886  -12.4043 C   0  0  2  0  0  0  0  0  0  0  0  0
   36.7382   42.6428  -13.5365 N   0  0  0  0  0  0  0  0  0  0  0  0
   38.7011   32.0847  -13.4657 C   0  0  1  0  0  0  0  0  0  0  0  0
   40.0496   31.7455  -13.8029 O   0  0  0  0  0  0  0  0  0  0  0  0
   34.0262   33.9312  -14.5484 C   0  0  2  0  0  0  0  0  0  0  0  0
   33.6975   32.5440  -14.1870 N   0  0  0  0  0  0  0  0  0  0  0  0
   38.2751   39.1683  -11.8362 C   0  0  2  0  0  0  0  0  0  0  0  0
   37.5651   40.3743  -12.1627 O   0  0  0  0  0  0  0  0  0  0  0  0
   38.5862   43.9854  -12.6691 C   0  0  1  0  0  0  0  0  0  0  0  0
   39.3422   44.3018  -11.4972 O   0  0  0  0  0  0  0  0  0  0  0  0
   38.2863   31.3331  -12.1995 C   0  0  2  0  0  0  0  0  0  0  0  0
   38.2714   29.9268  -12.4588 O   0  0  0  0  0  0  0  0  0  0  0  0
   35.0215   34.4875  -13.5225 C   0  0  2  0  0  0  0  0  0  0  0  0
   38.7702   38.5080  -13.1133 C   0  0  2  0  0  0  0  0  0  0  0  0
   37.7024   37.6580  -13.5851 O   0  0  0  0  0  0  0  0  0  0  0  0
   39.5559   43.6888  -13.8143 C   0  0  2  0  0  0  0  0  0  0  0  0
   38.8148   43.5909  -15.0338 O   0  0  0  0  0  0  0  0  0  0  0  0
   36.8933   31.7915  -11.7652 C   0  0  2  0  0  0  0  0  0  0  0  0
   36.8875   33.2141  -11.5345 O   0  0  0  0  0  0  0  0  0  0  0  0
   35.2664   35.9906  -13.6374 C   0  0  2  0  0  0  0  0  0  0  0  0
   35.9703   36.4484  -12.4714 O   0  0  0  0  0  0  0  0  0  0  0  0
   40.0291   37.6925  -12.8106 C   0  0  0  0  0  0  0  0  0  0  0  0
   41.0662   38.5765  -12.3793 O   0  0  0  0  0  0  0  0  0  0  0  0
   40.2826   42.3731  -13.5231 C   0  0  1  0  0  0  0  0  0  0  0  0
   39.3027   41.3246  -13.4245 O   0  0  0  0  0  0  0  0  0  0  0  0
   36.5426   31.0503  -10.4726 C   0  0  0  0  0  0  0  0  0  0  0  0
   35.0883   31.0689  -10.2590 O   0  0  0  0  0  0  0  0  0  0  0  0
   33.9436   36.7521  -13.7832 C   0  0  1  0  0  0  0  0  0  0  0  0
   34.1999   38.1446  -13.9785 O   0  0  0  0  0  0  0  0  0  0  0  0
   41.2906   42.0145  -14.6157 C   0  0  0  0  0  0  0  0  0  0  0  0
   42.2838   43.0916  -14.7301 N   0  0  0  0  0  0  0  0  0  0  0  0
  1  2  1  6  0  0  0
  1  7  1  0  0  0  0
  1 30  1  0  0  0  0
  3  4  1  1  0  0  0
  3  9  1  0  0  0  0
  3 39  1  0  0  0  0
  5 10  1  0  0  0  0
  5 26  1  0  0  0  0
  5 32  1  1  0  0  0
  6 12  1  0  0  0  0
  6 36  1  0  0  0  0
  6 19  1  6  0  0  0
  7  8  1  6  0  0  0
  7 14  1  0  0  0  0
  9 16  1  0  0  0  0
 10 11  1  1  0  0  0
 10 18  1  0  0  0  0
 12 13  1  6  0  0  0
 12 20  1  0  0  0  0
 14 15  1  1  0  0  0
 14 22  1  0  0  0  0
 16 17  1  1  0  0  0
 16 24  1  0  0  0  0
 18 19  1  6  0  0  0
 18 25  1  0  0  0  0
 20 21  1  1  0  0  0
 20 27  1  0  0  0  0
 22 23  1  6  0  0  0
 22 29  1  0  0  0  0
 24  2  1  6  0  0  0
 24 31  1  0  0  0  0
 25 26  1  0  0  0  0
 25 33  1  1  0  0  0
 27 28  1  6  0  0  0
 27 35  1  0  0  0  0
 29 30  1  0  0  0  0
 29 37  1  1  0  0  0
 31 32  1  1  0  0  0
 31 39  1  0  0  0  0
 33 34  1  0  0  0  0
 35 36  1  0  0  0  0
 35 41  1  6  0  0  0
 37 38  1  0  0  0  0
 39 40  1  6  0  0  0
 41 42  1  0  0  0  0
M  END
>  <CHROM.1>
-160.55617098,179.29905528,-171.43815558,163.17210624,-169.83669572,-63.70231156
-160.18226580,161.33200545,59.12356038,37.34400085,37.17989192,-13.04762057
-1.86169793,-0.16103486,-0.09414230

>  <Name>
3c44_lig

>  <RI>
0

>  <Rbt.Current_Directory>
/home/itssahil/PROJECTS/Mol_Feturizer/New_Systems/rnas/3c44

>  <Rbt.Executable>
rbdock ($Id: //depot/dev/client3/rdock/2013.1/src/exe/rbdock.cxx#4 $)

>  <Rbt.Library>
libRbt.so (2013.1, Build901 2013/11/27)

>  <Rbt.Parameter_File>
/export/apps/rDock/src/rDock_2013.1_src/data/scripts/dock_solv.prm

>  <Rbt.Receptor>
prm/pocket_docking_2.prm

>  <SCORE>
-25.2163

>  <SCORE.INTER>
-21.2401

>  <SCORE.INTER.CONST>
1

>  <SCORE.INTER.POLAR>
-1.75826

>  <SCORE.INTER.ROT>
9

>  <SCORE.INTER.SOLV>
20.3159

>  <SCORE.INTER.VDW>
-24.6712

>  <SCORE.INTER.norm>
-0.505718

>  <SCORE.INTRA>
-3.97614

>  <SCORE.INTRA.DIHEDRAL>
-7.66125

>  <SCORE.INTRA.DIHEDRAL.0>
14.8538

>  <SCORE.INTRA.POLAR>
0

>  <SCORE.INTRA.POLAR.0>
0

>  <SCORE.INTRA.REPUL>
0

>  <SCORE.INTRA.REPUL.0>
0

>  <SCORE.INTRA.SOLV>
-3.581

>  <SCORE.INTRA.SOLV.lig_0>
-100.951

>  <SCORE.INTRA.VDW>
1.64499

>  <SCORE.INTRA.VDW.0>
-5.71388

>  <SCORE.INTRA.norm>
-0.0946701

>  <SCORE.RESTR>
0

>  <SCORE.RESTR.CAVITY>
0

>  <SCORE.RESTR.norm>
0

>  <SCORE.SYSTEM>
0

>  <SCORE.SYSTEM.CONST>
0

>  <SCORE.SYSTEM.DIHEDRAL>
0

>  <SCORE.SYSTEM.SOLV>
0

>  <SCORE.SYSTEM.norm>
0

>  <SCORE.heavy>
42

>  <SCORE.norm>
-0.600388

>  <RMSD>
0.889

$$$$
3c44_lig
 OpenBabel11021811463D
libRbt.so/2013.1/901 2013/11/27
 42 45  0  0  0  0  0  0  0  0999 V2000
   37.3179   34.0301  -12.6123 C   0  0  2  0  0  0  0  0  0  0  0  0
   36.3277   33.7715  -13.6195 O   0  0  0  0  0  0  0  0  0  0  0  0
   33.2861   36.2789  -14.9044 C   0  0  2  0  0  0  0  0  0  0  0  0
   32.1116   37.1227  -15.1734 N   0  0  0  0  0  0  0  0  0  0  0  0
   36.7337   37.7552  -12.5167 C   0  0  1  0  0  0  0  0  0  0  0  0
   38.4813   41.5568  -12.1427 C   0  0  1  0  0  0  0  0  0  0  0  0
   38.7037   33.6980  -13.1754 C   0  0  2  0  0  0  0  0  0  0  0  0
   38.9474   34.4245  -14.4299 N   0  0  0  0  0  0  0  0  0  0  0  0
   32.8579   34.8426  -14.5898 C   0  0  0  0  0  0  0  0  0  0  0  0
   37.3437   38.1581  -11.1733 C   0  0  2  0  0  0  0  0  0  0  0  0
   36.3453   38.7541  -10.3428 O   0  0  0  0  0  0  0  0  0  0  0  0
   37.6689   42.8366  -12.3659 C   0  0  2  0  0  0  0  0  0  0  0  0
   36.7895   42.6288  -13.5246 N   0  0  0  0  0  0  0  0  0  0  0  0
   38.8559   32.1962  -13.4300 C   0  0  1  0  0  0  0  0  0  0  0  0
   40.2089   31.9161  -13.8017 O   0  0  0  0  0  0  0  0  0  0  0  0
   34.1272   33.9918  -14.4757 C   0  0  2  0  0  0  0  0  0  0  0  0
   33.7590   32.6150  -14.1128 N   0  0  0  0  0  0  0  0  0  0  0  0
   38.3062   39.2465  -11.6443 C   0  0  2  0  0  0  0  0  0  0  0  0
   37.5903   40.4341  -12.0215 O   0  0  0  0  0  0  0  0  0  0  0  0
   38.5869   44.0331  -12.6485 C   0  0  1  0  0  0  0  0  0  0  0  0
   39.2936   44.4107  -11.4641 O   0  0  0  0  0  0  0  0  0  0  0  0
   38.5021   31.4164  -12.1623 C   0  0  2  0  0  0  0  0  0  0  0  0
   38.5388   30.0132  -12.4355 O   0  0  0  0  0  0  0  0  0  0  0  0
   35.1190   34.5293  -13.4364 C   0  0  2  0  0  0  0  0  0  0  0  0
   38.8855   38.5861  -12.8854 C   0  0  2  0  0  0  0  0  0  0  0  0
   37.8637   37.7092  -13.4074 O   0  0  0  0  0  0  0  0  0  0  0  0
   39.6031   43.6999  -13.7420 C   0  0  2  0  0  0  0  0  0  0  0  0
   38.9104   43.5386  -14.9831 O   0  0  0  0  0  0  0  0  0  0  0  0
   37.1021   31.8129  -11.6913 C   0  0  2  0  0  0  0  0  0  0  0  0
   37.0434   33.2319  -11.4459 O   0  0  0  0  0  0  0  0  0  0  0  0
   35.4024   36.0254  -13.5548 C   0  0  2  0  0  0  0  0  0  0  0  0
   36.0982   36.4722  -12.3797 O   0  0  0  0  0  0  0  0  0  0  0  0
   40.1425   37.8006  -12.5055 C   0  0  0  0  0  0  0  0  0  0  0  0
   39.7776   36.7270  -11.6352 O   0  0  0  0  0  0  0  0  0  0  0  0
   40.3338   42.4082  -13.3657 C   0  0  1  0  0  0  0  0  0  0  0  0
   39.3634   41.3518  -13.2578 O   0  0  0  0  0  0  0  0  0  0  0  0
   36.8126   31.0459  -10.3985 C   0  0  0  0  0  0  0  0  0  0  0  0
   35.3716   31.0707  -10.1091 O   0  0  0  0  0  0  0  0  0  0  0  0
   34.1010   36.8179  -13.7260 C   0  0  1  0  0  0  0  0  0  0  0  0
   34.3944   38.2028  -13.9241 O   0  0  0  0  0  0  0  0  0  0  0  0
   41.3871   42.0158  -14.4025 C   0  0  0  0  0  0  0  0  0  0  0  0
   40.7214   41.7098  -15.6764 N   0  0  0  0  0  0  0  0  0  0  0  0
  1  2  1  6  0  0  0
  1  7  1  0  0  0  0
  1 30  1  0  0  0  0
  3  4  1  1  0  0  0
  3  9  1  0  0  0  0
  3 39  1  0  0  0  0
  5 10  1  0  0  0  0
  5 26  1  0  0  0  0
  5 32  1  1  0  0  0
  6 12  1  0  0  0  0
  6 36  1  0  0  0  0
  6 19  1  6  0  0  0
  7  8  1  6  0  0  0
  7 14  1  0  0  0  0
  9 16  1  0  0  0  0
 10 11  1  1  0  0  0
 10 18  1  0  0  0  0
 12 13  1  6  0  0  0
 12 20  1  0  0  0  0
 14 15  1  1  0  0  0
 14 22  1  0  0  0  0
 16 17  1  1  0  0  0
 16 24  1  0  0  0  0
 18 19  1  6  0  0  0
 18 25  1  0  0  0  0
 20 21  1  1  0  0  0
 20 27  1  0  0  0  0
 22 23  1  6  0  0  0
 22 29  1  0  0  0  0
 24  2  1  6  0  0  0
 24 31  1  0  0  0  0
 25 26  1  0  0  0  0
 25 33  1  1  0  0  0
 27 28  1  6  0  0  0
 27 35  1  0  0  0  0
 29 30  1  0  0  0  0
 29 37  1  1  0  0  0
 31 32  1  1  0  0  0
 31 39  1  0  0  0  0
 33 34  1  0  0  0  0
 35 36  1  0  0  0  0
 35 41  1  6  0  0  0
 37 38  1  0  0  0  0
 39 40  1  6  0  0  0
 41 42  1  0  0  0  0
M  END
>  <CHROM.1>
-155.80336097,175.78214488,-172.72171696,165.58285344,-172.67234078,64.97221325
-163.52220665,164.09649317,-64.36111348,37.37589864,37.14999187,-12.96175053
-1.81373170,-0.19703706,-0.10132635

>  <Name>
3c44_lig

>  <RI>
224

>  <Rbt.Current_Directory>
/home/itssahil/PROJECTS/Mol_Feturizer/New_Systems/rnas/3c44

>  <Rbt.Executable>
rbdock ($Id: //depot/dev/client3/rdock/2013.1/src/exe/rbdock.cxx#4 $)

>  <Rbt.Library>
libRbt.so (2013.1, Build901 2013/11/27)

>  <Rbt.Parameter_File>
/export/apps/rDock/src/rDock_2013.1_src/data/scripts/dock_solv.prm

>  <Rbt.Receptor>
prm/pocket_docking_3.prm

>  <SCORE>
-24.4526

>  <SCORE.INTER>
-21.91

>  <SCORE.INTER.CONST>
1

>  <SCORE.INTER.POLAR>
-1.72271

>  <SCORE.INTER.ROT>
9

>  <SCORE.INTER.SOLV>
20.0125

>  <SCORE.INTER.VDW>
-25.1352

>  <SCORE.INTER.norm>
-0.521668

>  <SCORE.INTRA>
-2.54253

>  <SCORE.INTRA.DIHEDRAL>
-8.08259

>  <SCORE.INTRA.DIHEDRAL.0>
14.8538

>  <SCORE.INTRA.POLAR>
0

>  <SCORE.INTRA.POLAR.0>
0

>  <SCORE.INTRA.REPUL>
0.0103792

>  <SCORE.INTRA.REPUL.0>
0

>  <SCORE.INTRA.SOLV>
-1.26036

>  <SCORE.INTRA.SOLV.lig_0>
-100.951

>  <SCORE.INTRA.VDW>
2.07705

>  <SCORE.INTRA.VDW.0>
-5.71388

>  <SCORE.INTRA.norm>
-0.0605363

>  <SCORE.RESTR>
0

>  <SCORE.RESTR.CAVITY>
0

>  <SCORE.RESTR.norm>
0

>  <SCORE.SYSTEM>
0

>  <SCORE.SYSTEM.CONST>
0

>  <SCORE.SYSTEM.DIHEDRAL>
0

>  <SCORE.SYSTEM.SOLV>
0

>  <SCORE.SYSTEM.norm>
0

>  <SCORE.heavy>
42

>  <SCORE.norm>
-0.582204

>  <RMSD>
0.909

$$$$
3c44_lig
 OpenBabel11021811463D
libRbt.so/2013.1/901 2013/11/27
 42 45  0  0  0  0  0  0  0  0999 V2000
   37.2741   33.9549  -12.6092 C   0  0  2  0  0  0  0  0  0  0  0  0
   36.2844   33.6865  -13.6143 O   0  0  0  0  0  0  0  0  0  0  0  0
   33.1314   36.0882  -14.8311 C   0  0  2  0  0  0  0  0  0  0  0  0
   31.9228   36.8907  -15.0743 N   0  0  0  0  0  0  0  0  0  0  0  0
   36.6437   37.6403  -12.5345 C   0  0  1  0  0  0  0  0  0  0  0  0
   38.4685   41.4193  -12.2407 C   0  0  1  0  0  0  0  0  0  0  0  0
   38.6649   33.6762  -13.1888 C   0  0  2  0  0  0  0  0  0  0  0  0
   38.8768   34.4346  -14.4301 N   0  0  0  0  0  0  0  0  0  0  0  0
   32.7605   34.6368  -14.5131 C   0  0  0  0  0  0  0  0  0  0  0  0
   37.2770   38.0611  -11.2075 C   0  0  2  0  0  0  0  0  0  0  0  0
   36.3004   38.6963  -10.3801 O   0  0  0  0  0  0  0  0  0  0  0  0
   37.6748   42.7153  -12.4362 C   0  0  2  0  0  0  0  0  0  0  0  0
   36.7681   42.5333  -13.5781 N   0  0  0  0  0  0  0  0  0  0  0  0
   38.8603   32.1851  -13.4747 C   0  0  1  0  0  0  0  0  0  0  0  0
   40.2182   31.9535  -13.8617 O   0  0  0  0  0  0  0  0  0  0  0  0
   34.0611   33.8311  -14.4266 C   0  0  2  0  0  0  0  0  0  0  0  0
   33.7489   32.4412  -14.0613 N   0  0  0  0  0  0  0  0  0  0  0  0
   38.2560   39.1185  -11.7138 C   0  0  2  0  0  0  0  0  0  0  0  0
   37.5601   40.3116  -12.1105 O   0  0  0  0  0  0  0  0  0  0  0  0
   38.6081   43.8976  -12.7277 C   0  0  1  0  0  0  0  0  0  0  0  0
   39.3458   44.2522  -11.5552 O   0  0  0  0  0  0  0  0  0  0  0  0
   38.5401   31.3698  -12.2205 C   0  0  2  0  0  0  0  0  0  0  0  0
   38.6169   29.9741  -12.5222 O   0  0  0  0  0  0  0  0  0  0  0  0
   35.0534   34.4006  -13.4051 C   0  0  2  0  0  0  0  0  0  0  0  0
   38.8076   38.4182  -12.9456 C   0  0  2  0  0  0  0  0  0  0  0  0
   37.7624   37.5508  -13.4362 O   0  0  0  0  0  0  0  0  0  0  0  0
   39.5955   43.5560  -13.8449 C   0  0  2  0  0  0  0  0  0  0  0  0
   38.8745   43.4180  -15.0726 O   0  0  0  0  0  0  0  0  0  0  0  0
   37.1324   31.7143  -11.7315 C   0  0  2  0  0  0  0  0  0  0  0  0
   37.0329   33.1257  -11.4571 O   0  0  0  0  0  0  0  0  0  0  0  0
   35.2814   35.9061  -13.5239 C   0  0  2  0  0  0  0  0  0  0  0  0
   35.9839   36.3741  -12.3611 O   0  0  0  0  0  0  0  0  0  0  0  0
   40.0527   37.6159  -12.5613 C   0  0  0  0  0  0  0  0  0  0  0  0
   41.0744   38.5170  -12.1292 O   0  0  0  0  0  0  0  0  0  0  0  0
   40.3104   42.2483  -13.4947 C   0  0  1  0  0  0  0  0  0  0  0  0
   39.3236   41.2084  -13.3756 O   0  0  0  0  0  0  0  0  0  0  0  0
   36.8763   30.9132  -10.4524 C   0  0  0  0  0  0  0  0  0  0  0  0
   35.4635   31.0245  -10.0618 O   0  0  0  0  0  0  0  0  0  0  0  0
   33.9498   36.6526  -13.6670 C   0  0  1  0  0  0  0  0  0  0  0  0
   34.1901   38.0474  -13.8661 O   0  0  0  0  0  0  0  0  0  0  0  0
   41.3348   41.8463  -14.5565 C   0  0  0  0  0  0  0  0  0  0  0  0
   42.3926   42.8646  -14.6183 N   0  0  0  0  0  0  0  0  0  0  0  0
  1  2  1  6  0  0  0
  1  7  1  0  0  0  0
  1 30  1  0  0  0  0
  3  4  1  1  0  0  0
  3  9  1  0  0  0  0
  3 39  1  0  0  0  0
  5 10  1  0  0  0  0
  5 26  1  0  0  0  0
  5 32  1  1  0  0  0
  6 12  1  0  0  0  0
  6 36  1  0  0  0  0
  6 19  1  6  0  0  0
  7  8  1  6  0  0  0
  7 14  1  0  0  0  0
  9 16  1  0  0  0  0
 10 11  1  1  0  0  0
 10 18  1  0  0  0  0
 12 13  1  6  0  0  0
 12 20  1  0  0  0  0
 14 15  1  1  0  0  0
 14 22  1  0  0  0  0
 16 17  1  1  0  0  0
 16 24  1  0  0  0  0
 18 19  1  6  0  0  0
 18 25  1  0  0  0  0
 20 21  1  1  0  0  0
 20 27  1  0  0  0  0
 22 23  1  6  0  0  0
 22 29  1  0  0  0  0
 24  2  1  6  0  0  0
 24 31  1  0  0  0  0
 25 26  1  0  0  0  0
 25 33  1  1  0  0  0
 27 28  1  6  0  0  0
 27 35  1  0  0  0  0
 29 30  1  0  0  0  0
 29 37  1  1  0  0  0
 31 32  1  1  0  0  0
 31 39  1  0  0  0  0
 33 34  1  0  0  0  0
 35 36  1  0  0  0  0
 35 41  1  6  0  0  0
 37 38  1  0  0  0  0
 39 40  1  6  0  0  0
 41 42  1  0  0  0  0
M  END
>  <CHROM.1>
-155.97332380,176.60816565,-170.75808914,164.40959172,-171.38488650,-64.40289388
-170.38283097,160.27704410,63.49788956,37.40937064,37.11519415,-12.97763657
-1.85408176,-0.15302837,-0.09446719

>  <Name>
3c44_lig

>  <RI>
224

>  <Rbt.Current_Directory>
/home/itssahil/PROJECTS/Mol_Feturizer/New_Systems/rnas/3c44

>  <Rbt.Executable>
rbdock ($Id: //depot/dev/client3/rdock/2013.1/src/exe/rbdock.cxx#4 $)

>  <Rbt.Library>
libRbt.so (2013.1, Build901 2013/11/27)

>  <Rbt.Parameter_File>
/export/apps/rDock/src/rDock_2013.1_src/data/scripts/dock_solv.prm

>  <Rbt.Receptor>
prm/pocket_docking_3.prm

>  <SCORE>
-25.5931

>  <SCORE.INTER>
-21.63

>  <SCORE.INTER.CONST>
1

>  <SCORE.INTER.POLAR>
-1.73324

>  <SCORE.INTER.ROT>
9

>  <SCORE.INTER.SOLV>
21.3951

>  <SCORE.INTER.VDW>
-25.3742

>  <SCORE.INTER.norm>
-0.515

>  <SCORE.INTRA>
-3.96307

>  <SCORE.INTRA.DIHEDRAL>
-7.80605

>  <SCORE.INTRA.DIHEDRAL.0>
14.8538

>  <SCORE.INTRA.POLAR>
0

>  <SCORE.INTRA.POLAR.0>
0

>  <SCORE.INTRA.REPUL>
0

>  <SCORE.INTRA.REPUL.0>
0

>  <SCORE.INTRA.SOLV>
-3.2491

>  <SCORE.INTRA.SOLV.lig_0>
-100.951

>  <SCORE.INTRA.VDW>
1.56451

>  <SCORE.INTRA.VDW.0>
-5.71388

>  <SCORE.INTRA.norm>
-0.0943587

>  <SCORE.RESTR>
0

>  <SCORE.RESTR.CAVITY>
0

>  <SCORE.RESTR.norm>
0

>  <SCORE.SYSTEM>
0

>  <SCORE.SYSTEM.CONST>
0

>  <SCORE.SYSTEM.DIHEDRAL>
0

>  <SCORE.SYSTEM.SOLV>
0

>  <SCORE.SYSTEM.norm>
0

>  <SCORE.heavy>
42

>  <SCORE.norm>
-0.609359

>  <RMSD>
0.909

$$$$
3c44_lig
 OpenBabel11021811463D
libRbt.so/2013.1/901 2013/11/27
 42 45  0  0  0  0  0  0  0  0999 V2000
   37.4853   34.0577  -12.8050 C   0  0  2  0  0  0  0  0  0  0  0  0
   36.4636   33.9437  -13.8075 O   0  0  0  0  0  0  0  0  0  0  0  0
   33.3644   36.5368  -14.7350 C   0  0  2  0  0  0  0  0  0  0  0  0
   32.1821   37.4010  -14.8740 N   0  0  0  0  0  0  0  0  0  0  0  0
   36.9810   37.8562  -12.5116 C   0  0  1  0  0  0  0  0  0  0  0  0
   38.6448   41.6999  -11.8843 C   0  0  1  0  0  0  0  0  0  0  0  0
   38.7627   33.3804  -13.3125 C   0  0  2  0  0  0  0  0  0  0  0  0
   39.1640   33.9286  -14.6161 N   0  0  0  0  0  0  0  0  0  0  0  0
   32.9455   35.0872  -14.4733 C   0  0  0  0  0  0  0  0  0  0  0  0
   37.5213   38.2641  -11.1402 C   0  0  2  0  0  0  0  0  0  0  0  0
   36.4800   38.8570  -10.3618 O   0  0  0  0  0  0  0  0  0  0  0  0
   37.8852   42.9322  -12.3867 C   0  0  2  0  0  0  0  0  0  0  0  0
   37.3898   42.6485  -13.7407 N   0  0  0  0  0  0  0  0  0  0  0  0
   38.5760   31.8667  -13.4430 C   0  0  1  0  0  0  0  0  0  0  0  0
   39.8328   31.2630  -13.7645 O   0  0  0  0  0  0  0  0  0  0  0  0
   34.2116   34.2244  -14.4955 C   0  0  2  0  0  0  0  0  0  0  0  0
   33.8563   32.8311  -14.1864 N   0  0  0  0  0  0  0  0  0  0  0  0
   38.5013   39.3561  -11.5646 C   0  0  2  0  0  0  0  0  0  0  0  0
   37.7999   40.5397  -11.9794 O   0  0  0  0  0  0  0  0  0  0  0  0
   38.8002   44.1626  -12.4413 C   0  0  1  0  0  0  0  0  0  0  0  0
   39.1168   44.6082  -11.1199 O   0  0  0  0  0  0  0  0  0  0  0  0
   38.0555   31.2922  -12.1241 C   0  0  2  0  0  0  0  0  0  0  0  0
   37.7783   29.8984  -12.2834 O   0  0  0  0  0  0  0  0  0  0  0  0
   35.2775   34.6963  -13.4987 C   0  0  2  0  0  0  0  0  0  0  0  0
   39.1448   38.6962  -12.7739 C   0  0  2  0  0  0  0  0  0  0  0  0
   38.1543   37.8138  -13.3447 O   0  0  0  0  0  0  0  0  0  0  0  0
   40.1026   43.8467  -13.1786 C   0  0  2  0  0  0  0  0  0  0  0  0
   39.8078   43.6161  -14.5592 O   0  0  0  0  0  0  0  0  0  0  0  0
   36.7788   32.0277  -11.7139 C   0  0  2  0  0  0  0  0  0  0  0  0
   37.0381   33.4394  -11.5841 O   0  0  0  0  0  0  0  0  0  0  0  0
   35.5660   36.1952  -13.5516 C   0  0  2  0  0  0  0  0  0  0  0  0
   36.3452   36.5705  -12.4041 O   0  0  0  0  0  0  0  0  0  0  0  0
   40.3847   37.9170  -12.3301 C   0  0  0  0  0  0  0  0  0  0  0  0
   41.0243   37.3613  -13.4811 O   0  0  0  0  0  0  0  0  0  0  0  0
   40.7399   42.6032  -12.5530 C   0  0  1  0  0  0  0  0  0  0  0  0
   39.8204   41.5050  -12.6865 O   0  0  0  0  0  0  0  0  0  0  0  0
   36.3237   31.4534  -10.3698 C   0  0  0  0  0  0  0  0  0  0  0  0
   35.8162   30.0858  -10.5514 O   0  0  0  0  0  0  0  0  0  0  0  0
   34.2634   37.0033  -13.5872 C   0  0  1  0  0  0  0  0  0  0  0  0
   34.5554   38.3956  -13.7265 O   0  0  0  0  0  0  0  0  0  0  0  0
   42.0634   42.2317  -13.2229 C   0  0  0  0  0  0  0  0  0  0  0  0
   41.8121   41.8765  -14.6266 N   0  0  0  0  0  0  0  0  0  0  0  0
  1  2  1  6  0  0  0
  1  7  1  0  0  0  0
  1 30  1  0  0  0  0
  3  4  1  1  0  0  0
  3  9  1  0  0  0  0
  3 39  1  0  0  0  0
  5 10  1  0  0  0  0
  5 26  1  0  0  0  0
  5 32  1  1  0  0  0
  6 12  1  0  0  0  0
  6 36  1  0  0  0  0
  6 19  1  6  0  0  0
  7  8  1  6  0  0  0
  7 14  1  0  0  0  0
  9 16  1  0  0  0  0
 10 11  1  1  0  0  0
 10 18  1  0  0  0  0
 12 13  1  6  0  0  0
 12 20  1  0  0  0  0
 14 15  1  1  0  0  0
 14 22  1  0  0  0  0
 16 17  1  1  0  0  0
 16 24  1  0  0  0  0
 18 19  1  6  0  0  0
 18 25  1  0  0  0  0
 20 21  1  1  0  0  0
 20 27  1  0  0  0  0
 22 23  1  6  0  0  0
 22 29  1  0  0  0  0
 24  2  1  6  0  0  0
 24 31  1  0  0  0  0
 25 26  1  0  0  0  0
 25 33  1  1  0  0  0
 27 28  1  6  0  0  0
 27 35  1  0  0  0  0
 29 30  1  0  0  0  0
 29 37  1  1  0  0  0
 31 32  1  1  0  0  0
 31 39  1  0  0  0  0
 33 34  1  0  0  0  0
 35 36  1  0  0  0  0
 35 41  1  6  0  0  0
 37 38  1  0  0  0  0
 39 40  1  6  0  0  0
 41 42  1  0  0  0  0
M  END
>  <CHROM.1>
-172.50208303,168.12945449,177.72449302,157.77630242,-168.13973381,-176.85407414
-70.66457887,164.13523120,-63.51091112,37.56247657,37.22061509,-12.88565361
-1.85950475,-0.14561065,-0.04693829

>  <Name>
3c44_lig

>  <RI>
0

>  <Rbt.Current_Directory>
/home/itssahil/PROJECTS/Mol_Feturizer/New_Systems/rnas/3c44

>  <Rbt.Executable>
rbdock ($Id: //depot/dev/client3/rdock/2013.1/src/exe/rbdock.cxx#4 $)

>  <Rbt.Library>
libRbt.so (2013.1, Build901 2013/11/27)

>  <Rbt.Parameter_File>
/export/apps/rDock/src/rDock_2013.1_src/data/scripts/dock_solv.prm

>  <Rbt.Receptor>
prm/pocket_docking_2.prm

>  <SCORE>
-25.1451

>  <SCORE.INTER>
-21.6834

>  <SCORE.INTER.CONST>
1

>  <SCORE.INTER.POLAR>
-1.68827

>  <SCORE.INTER.ROT>
9

>  <SCORE.INTER.SOLV>
20.2309

>  <SCORE.INTER.VDW>
-25.1716

>  <SCORE.INTER.norm>
-0.516271

>  <SCORE.INTRA>
-3.46202

>  <SCORE.INTRA.DIHEDRAL>
-9.10232

>  <SCORE.INTRA.DIHEDRAL.0>
14.8538

>  <SCORE.INTRA.POLAR>
0

>  <SCORE.INTRA.POLAR.0>
0

>  <SCORE.INTRA.REPUL>
0.0356868

>  <SCORE.INTRA.REPUL.0>
0

>  <SCORE.INTRA.SOLV>
-2.84133

>  <SCORE.INTRA.SOLV.lig_0>
-100.951

>  <SCORE.INTRA.VDW>
2.33137

>  <SCORE.INTRA.VDW.0>
-5.71388

>  <SCORE.INTRA.norm>
-0.082429

>  <SCORE.RESTR>
0.000251437

>  <SCORE.RESTR.CAVITY>
0.000251437

>  <SCORE.RESTR.norm>
5.9866e-06

>  <SCORE.SYSTEM>
0

>  <SCORE.SYSTEM.CONST>
0

>  <SCORE.SYSTEM.DIHEDRAL>
0

>  <SCORE.SYSTEM.SOLV>
0

>  <SCORE.SYSTEM.norm>
0

>  <SCORE.heavy>
42

>  <SCORE.norm>
-0.598694

>  <RMSD>
0.920

$$$$
3c44_lig
 OpenBabel11021811463D
libRbt.so/2013.1/901 2013/11/27
 42 45  0  0  0  0  0  0  0  0999 V2000
   37.1875   33.8958  -12.6789 C   0  0  2  0  0  0  0  0  0  0  0  0
   36.2707   33.8278  -13.7820 O   0  0  0  0  0  0  0  0  0  0  0  0
   33.1883   36.3495  -14.9351 C   0  0  2  0  0  0  0  0  0  0  0  0
   32.0017   37.1896  -15.1586 N   0  0  0  0  0  0  0  0  0  0  0  0
   36.6790   37.7469  -12.5345 C   0  0  1  0  0  0  0  0  0  0  0  0
   38.4630   41.5314  -11.9638 C   0  0  1  0  0  0  0  0  0  0  0  0
   38.5283   33.2881  -13.1039 C   0  0  2  0  0  0  0  0  0  0  0  0
   39.0353   33.9371  -14.3217 N   0  0  0  0  0  0  0  0  0  0  0  0
   32.7798   34.8964  -14.6765 C   0  0  0  0  0  0  0  0  0  0  0  0
   37.2794   38.1144  -11.1768 C   0  0  2  0  0  0  0  0  0  0  0  0
   36.2809   38.7108  -10.3467 O   0  0  0  0  0  0  0  0  0  0  0  0
   37.6880   42.8017  -12.3292 C   0  0  2  0  0  0  0  0  0  0  0  0
   37.0113   42.5760  -13.6138 N   0  0  0  0  0  0  0  0  0  0  0  0
   38.4029   31.7833  -13.3549 C   0  0  1  0  0  0  0  0  0  0  0  0
   39.7032   31.2352  -13.5923 O   0  0  0  0  0  0  0  0  0  0  0  0
   34.0599   34.0569  -14.6089 C   0  0  2  0  0  0  0  0  0  0  0  0
   33.7111   32.6620  -14.3001 N   0  0  0  0  0  0  0  0  0  0  0  0
   38.2649   39.1956  -11.6157 C   0  0  2  0  0  0  0  0  0  0  0  0
   37.5728   40.4016  -11.9785 O   0  0  0  0  0  0  0  0  0  0  0  0
   38.6306   44.0042  -12.4700 C   0  0  1  0  0  0  0  0  0  0  0  0
   39.1315   44.3984  -11.1899 O   0  0  0  0  0  0  0  0  0  0  0  0
   37.7768   31.1041  -12.1355 C   0  0  2  0  0  0  0  0  0  0  0  0
   37.5603   29.7186  -12.4157 O   0  0  0  0  0  0  0  0  0  0  0  0
   35.0550   34.5629  -13.5570 C   0  0  2  0  0  0  0  0  0  0  0  0
   38.8482   38.5493  -12.8624 C   0  0  2  0  0  0  0  0  0  0  0  0
   37.8187   37.6993  -13.4128 O   0  0  0  0  0  0  0  0  0  0  0  0
   39.8143   43.6711  -13.3796 C   0  0  2  0  0  0  0  0  0  0  0  0
   39.3348   43.4929  -14.7155 O   0  0  0  0  0  0  0  0  0  0  0  0
   36.4441   31.7767  -11.8029 C   0  0  2  0  0  0  0  0  0  0  0  0
   36.6450   33.1817  -11.5525 O   0  0  0  0  0  0  0  0  0  0  0  0
   35.3199   36.0659  -13.6159 C   0  0  2  0  0  0  0  0  0  0  0  0
   36.0213   36.4721  -12.4294 O   0  0  0  0  0  0  0  0  0  0  0  0
   40.0877   37.7363  -12.4829 C   0  0  0  0  0  0  0  0  0  0  0  0
   40.6954   37.2278  -13.6724 O   0  0  0  0  0  0  0  0  0  0  0  0
   40.4837   42.3894  -12.8764 C   0  0  1  0  0  0  0  0  0  0  0  0
   39.5169   41.3251  -12.9178 O   0  0  0  0  0  0  0  0  0  0  0  0
   35.8807   31.0975  -10.5521 C   0  0  0  0  0  0  0  0  0  0  0  0
   36.5652   31.6015   -9.3527 O   0  0  0  0  0  0  0  0  0  0  0  0
   34.0079   36.8492  -13.7426 C   0  0  1  0  0  0  0  0  0  0  0  0
   34.2833   38.2444  -13.8858 O   0  0  0  0  0  0  0  0  0  0  0  0
   41.6951   41.9980  -13.7235 C   0  0  0  0  0  0  0  0  0  0  0  0
   41.2364   41.5510  -15.0461 N   0  0  0  0  0  0  0  0  0  0  0  0
  1  2  1  6  0  0  0
  1  7  1  0  0  0  0
  1 30  1  0  0  0  0
  3  4  1  1  0  0  0
  3  9  1  0  0  0  0
  3 39  1  0  0  0  0
  5 10  1  0  0  0  0
  5 26  1  0  0  0  0
  5 32  1  1  0  0  0
  6 12  1  0  0  0  0
  6 36  1  0  0  0  0
  6 19  1  6  0  0  0
  7  8  1  6  0  0  0
  7 14  1  0  0  0  0
  9 16  1  0  0  0  0
 10 11  1  1  0  0  0
 10 18  1  0  0  0  0
 12 13  1  6  0  0  0
 12 20  1  0  0  0  0
 14 15  1  1  0  0  0
 14 22  1  0  0  0  0
 16 17  1  1  0  0  0
 16 24  1  0  0  0  0
 18 19  1  6  0  0  0
 18 25  1  0  0  0  0
 20 21  1  1  0  0  0
 20 27  1  0  0  0  0
 22 23  1  6  0  0  0
 22 29  1  0  0  0  0
 24  2  1  6  0  0  0
 24 31  1  0  0  0  0
 25 26  1  0  0  0  0
 25 33  1  1  0  0  0
 27 28  1  6  0  0  0
 27 35  1  0  0  0  0
 29 30  1  0  0  0  0
 29 37  1  1  0  0  0
 31 32  1  1  0  0  0
 31 39  1  0  0  0  0
 33 34  1  0  0  0  0
 35 36  1  0  0  0  0
 35 41  1  6  0  0  0
 37 38  1  0  0  0  0
 39 40  1  6  0  0  0
 41 42  1  0  0  0  0
M  END
>  <CHROM.1>
-170.61747189,175.11681634,-178.95744030,160.97673888,-163.85440947,-175.05526407
78.28797363,162.07343064,-69.76001079,37.33011002,37.10582312,-12.93108495
-1.85230774,-0.19423440,-0.07886513

>  <Name>
3c44_lig

>  <RI>
0

>  <Rbt.Current_Directory>
/home/itssahil/PROJECTS/Mol_Feturizer/New_Systems/rnas/3c44

>  <Rbt.Executable>
rbdock ($Id: //depot/dev/client3/rdock/2013.1/src/exe/rbdock.cxx#4 $)

>  <Rbt.Library>
libRbt.so (2013.1, Build901 2013/11/27)

>  <Rbt.Parameter_File>
/export/apps/rDock/src/rDock_2013.1_src/data/scripts/dock_solv.prm

>  <Rbt.Receptor>
prm/pocket_docking_2.prm

>  <SCORE>
-22.5816

>  <SCORE.INTER>
-19.6195

>  <SCORE.INTER.CONST>
1

>  <SCORE.INTER.POLAR>
-1.70218

>  <SCORE.INTER.ROT>
9

>  <SCORE.INTER.SOLV>
20.9142

>  <SCORE.INTER.VDW>
-23.9771

>  <SCORE.INTER.norm>
-0.467131

>  <SCORE.INTRA>
-3.52636

>  <SCORE.INTRA.DIHEDRAL>
-8.10118

>  <SCORE.INTRA.DIHEDRAL.0>
14.8538

>  <SCORE.INTRA.POLAR>
0

>  <SCORE.INTRA.POLAR.0>
0

>  <SCORE.INTRA.REPUL>
0.0050183

>  <SCORE.INTRA.REPUL.0>
0

>  <SCORE.INTRA.SOLV>
-2.22179

>  <SCORE.INTRA.SOLV.lig_0>
-100.951

>  <SCORE.INTRA.VDW>
1.61003

>  <SCORE.INTRA.VDW.0>
-5.71388

>  <SCORE.INTRA.norm>
-0.083961

>  <SCORE.RESTR>
0.564227

>  <SCORE.RESTR.CAVITY>
0.564227

>  <SCORE.RESTR.norm>
0.013434

>  <SCORE.SYSTEM>
0

>  <SCORE.SYSTEM.CONST>
0

>  <SCORE.SYSTEM.DIHEDRAL>
0

>  <SCORE.SYSTEM.SOLV>
0

>  <SCORE.SYSTEM.norm>
0

>  <SCORE.heavy>
42

>  <SCORE.norm>
-0.537658

>  <RMSD>
0.927

$$$$
3c44_lig
 OpenBabel11021811463D
libRbt.so/2013.1/901 2013/11/27
 42 45  0  0  0  0  0  0  0  0999 V2000
   37.1775   33.9501  -12.5705 C   0  0  2  0  0  0  0  0  0  0  0  0
   36.3205   33.9320  -13.7225 O   0  0  0  0  0  0  0  0  0  0  0  0
   33.3055   36.4714  -15.0072 C   0  0  2  0  0  0  0  0  0  0  0  0
   32.1376   37.3237  -15.2785 N   0  0  0  0  0  0  0  0  0  0  0  0
   36.7407   37.8847  -12.5514 C   0  0  1  0  0  0  0  0  0  0  0  0
   38.5166   41.6759  -12.0148 C   0  0  1  0  0  0  0  0  0  0  0  0
   38.5244   33.3187  -12.9384 C   0  0  2  0  0  0  0  0  0  0  0  0
   39.1120   33.9835  -14.1104 N   0  0  0  0  0  0  0  0  0  0  0  0
   32.8684   35.0313  -14.7240 C   0  0  0  0  0  0  0  0  0  0  0  0
   37.3167   38.2725  -11.1887 C   0  0  2  0  0  0  0  0  0  0  0  0
   36.3035   38.8810  -10.3857 O   0  0  0  0  0  0  0  0  0  0  0  0
   37.7427   42.9451  -12.3863 C   0  0  2  0  0  0  0  0  0  0  0  0
   37.0614   42.7118  -13.6672 N   0  0  0  0  0  0  0  0  0  0  0  0
   38.3764   31.8240  -13.2336 C   0  0  1  0  0  0  0  0  0  0  0  0
   39.6739   31.2488  -13.4149 O   0  0  0  0  0  0  0  0  0  0  0  0
   34.1333   34.1744  -14.6064 C   0  0  2  0  0  0  0  0  0  0  0  0
   33.7556   32.7927  -14.2729 N   0  0  0  0  0  0  0  0  0  0  0  0
   38.3099   39.3473  -11.6260 C   0  0  2  0  0  0  0  0  0  0  0  0
   37.6244   40.5476  -12.0190 O   0  0  0  0  0  0  0  0  0  0  0  0
   38.6868   44.1449  -12.5383 C   0  0  1  0  0  0  0  0  0  0  0  0
   39.1926   44.5469  -11.2625 O   0  0  0  0  0  0  0  0  0  0  0  0
   37.6689   31.1320  -12.0671 C   0  0  2  0  0  0  0  0  0  0  0  0
   37.4344   29.7596  -12.3934 O   0  0  0  0  0  0  0  0  0  0  0  0
   35.1115   34.6904  -13.5437 C   0  0  2  0  0  0  0  0  0  0  0  0
   38.9154   38.6827  -12.8523 C   0  0  2  0  0  0  0  0  0  0  0  0
   37.8959   37.8243  -13.4084 O   0  0  0  0  0  0  0  0  0  0  0  0
   39.8670   43.8036  -13.4495 C   0  0  2  0  0  0  0  0  0  0  0  0
   39.3829   43.6172  -14.7825 O   0  0  0  0  0  0  0  0  0  0  0  0
   36.3367   31.8303  -11.7895 C   0  0  2  0  0  0  0  0  0  0  0  0
   36.5578   33.2233  -11.4932 O   0  0  0  0  0  0  0  0  0  0  0  0
   35.4011   36.1874  -13.6319 C   0  0  2  0  0  0  0  0  0  0  0  0
   36.0812   36.6115  -12.4392 O   0  0  0  0  0  0  0  0  0  0  0  0
   40.1479   37.8757  -12.4386 C   0  0  0  0  0  0  0  0  0  0  0  0
   39.7592   36.8845  -11.4849 O   0  0  0  0  0  0  0  0  0  0  0  0
   40.5358   42.5242  -12.9397 C   0  0  1  0  0  0  0  0  0  0  0  0
   39.5670   41.4613  -12.9709 O   0  0  0  0  0  0  0  0  0  0  0  0
   35.6901   31.1359  -10.5881 C   0  0  0  0  0  0  0  0  0  0  0  0
   36.4229   31.4693   -9.3582 O   0  0  0  0  0  0  0  0  0  0  0  0
   34.1049   36.9872  -13.8080 C   0  0  1  0  0  0  0  0  0  0  0  0
   34.4053   38.3742  -13.9776 O   0  0  0  0  0  0  0  0  0  0  0  0
   41.7438   42.1249  -13.7881 C   0  0  0  0  0  0  0  0  0  0  0  0
   41.2860   41.7375  -15.1296 N   0  0  0  0  0  0  0  0  0  0  0  0
  1  2  1  6  0  0  0
  1  7  1  0  0  0  0
  1 30  1  0  0  0  0
  3  4  1  1  0  0  0
  3  9  1  0  0  0  0
  3 39  1  0  0  0  0
  5 10  1  0  0  0  0
  5 26  1  0  0  0  0
  5 32  1  1  0  0  0
  6 12  1  0  0  0  0
  6 36  1  0  0  0  0
  6 19  1  6  0  0  0
  7  8  1  6  0  0  0
  7 14  1  0  0  0  0
  9 16  1  0  0  0  0
 10 11  1  1  0  0  0
 10 18  1  0  0  0  0
 12 13  1  6  0  0  0
 12 20  1  0  0  0  0
 14 15  1  1  0  0  0
 14 22  1  0  0  0  0
 16 17  1  1  0  0  0
 16 24  1  0  0  0  0
 18 19  1  6  0  0  0
 18 25  1  0  0  0  0
 20 21  1  1  0  0  0
 20 27  1  0  0  0  0
 22 23  1  6  0  0  0
 22 29  1  0  0  0  0
 24  2  1  6  0  0  0
 24 31  1  0  0  0  0
 25 26  1  0  0  0  0
 25 33  1  1  0  0  0
 27 28  1  6  0  0  0
 27 35  1  0  0  0  0
 29 30  1  0  0  0  0
 29 37  1  1  0  0  0
 31 32  1  1  0  0  0
 31 39  1  0  0  0  0
 33 34  1  0  0  0  0
 35 36  1  0  0  0  0
 35 41  1  6  0  0  0
 37 38  1  0  0  0  0
 39 40  1  6  0  0  0
 41 42  1  0  0  0  0
M  END
>  <CHROM.1>
-170.71047006,175.11924259,-177.87382567,161.40798328,-160.48967160,59.50067877
71.57640251,163.14482632,-66.79380597,37.33194979,37.19959611,-12.87686467
-1.85584970,-0.27331359,-0.11344046

>  <Name>
3c44_lig

>  <RI>
0

>  <Rbt.Current_Directory>
/home/itssahil/PROJECTS/Mol_Feturizer/New_Systems/rnas/3c44

>  <Rbt.Executable>
rbdock ($Id: //depot/dev/client3/rdock/2013.1/src/exe/rbdock.cxx#4 $)

>  <Rbt.Library>
libRbt.so (2013.1, Build901 2013/11/27)

>  <Rbt.Parameter_File>
/export/apps/rDock/src/rDock_2013.1_src/data/scripts/dock_solv.prm

>  <Rbt.Receptor>
prm/pocket_docking_2.prm

>  <SCORE>
-21.6924

>  <SCORE.INTER>
-18.8576

>  <SCORE.INTER.CONST>
1

>  <SCORE.INTER.POLAR>
-1.64779

>  <SCORE.INTER.ROT>
9

>  <SCORE.INTER.SOLV>
21.3001

>  <SCORE.INTER.VDW>
-23.7791

>  <SCORE.INTER.norm>
-0.448989

>  <SCORE.INTRA>
-3.2305

>  <SCORE.INTRA.DIHEDRAL>
-8.71732

>  <SCORE.INTRA.DIHEDRAL.0>
14.8538

>  <SCORE.INTRA.POLAR>
0

>  <SCORE.INTRA.POLAR.0>
0

>  <SCORE.INTRA.REPUL>
0.00915624

>  <SCORE.INTRA.REPUL.0>
0

>  <SCORE.INTRA.SOLV>
-1.47142

>  <SCORE.INTRA.SOLV.lig_0>
-100.951

>  <SCORE.INTRA.VDW>
1.81808

>  <SCORE.INTRA.VDW.0>
-5.71388

>  <SCORE.INTRA.norm>
-0.0769167

>  <SCORE.RESTR>
0.395693

>  <SCORE.RESTR.CAVITY>
0.395693

>  <SCORE.RESTR.norm>
0.00942126

>  <SCORE.SYSTEM>
0

>  <SCORE.SYSTEM.CONST>
0

>  <SCORE.SYSTEM.DIHEDRAL>
0

>  <SCORE.SYSTEM.SOLV>
0

>  <SCORE.SYSTEM.norm>
0

>  <SCORE.heavy>
42

>  <SCORE.norm>
-0.516485

>  <RMSD>
0.934

$$$$
3c44_lig
 OpenBabel11021811463D
libRbt.so/2013.1/901 2013/11/27
 42 45  0  0  0  0  0  0  0  0999 V2000
   37.4941   34.0844  -12.8290 C   0  0  2  0  0  0  0  0  0  0  0  0
   36.4644   33.9639  -13.8226 O   0  0  0  0  0  0  0  0  0  0  0  0
   33.3298   36.5245  -14.7211 C   0  0  2  0  0  0  0  0  0  0  0  0
   32.1379   37.3771  -14.8485 N   0  0  0  0  0  0  0  0  0  0  0  0
   36.9651   37.8835  -12.5492 C   0  0  1  0  0  0  0  0  0  0  0  0
   38.6754   41.7046  -12.0741 C   0  0  1  0  0  0  0  0  0  0  0  0
   38.7702   33.4122  -13.3462 C   0  0  2  0  0  0  0  0  0  0  0  0
   39.1578   33.9600  -14.6541 N   0  0  0  0  0  0  0  0  0  0  0  0
   32.9278   35.0720  -14.4490 C   0  0  0  0  0  0  0  0  0  0  0  0
   37.5703   38.2761  -11.2006 C   0  0  2  0  0  0  0  0  0  0  0  0
   36.5665   38.8560  -10.3653 O   0  0  0  0  0  0  0  0  0  0  0  0
   37.8615   42.9608  -12.4016 C   0  0  2  0  0  0  0  0  0  0  0  0
   37.1095   42.7138  -13.6396 N   0  0  0  0  0  0  0  0  0  0  0  0
   38.5895   31.8974  -13.4727 C   0  0  1  0  0  0  0  0  0  0  0  0
   39.8463   31.2990  -13.8039 O   0  0  0  0  0  0  0  0  0  0  0  0
   34.2016   34.2210  -14.4838 C   0  0  2  0  0  0  0  0  0  0  0  0
   33.8632   32.8256  -14.1654 N   0  0  0  0  0  0  0  0  0  0  0  0
   38.5258   39.3763  -11.6583 C   0  0  2  0  0  0  0  0  0  0  0  0
   37.8021   40.5628  -12.0237 O   0  0  0  0  0  0  0  0  0  0  0  0
   38.7765   44.1745  -12.6111 C   0  0  1  0  0  0  0  0  0  0  0  0
   39.3503   44.5876  -11.3682 O   0  0  0  0  0  0  0  0  0  0  0  0
   38.0830   31.3227  -12.1485 C   0  0  2  0  0  0  0  0  0  0  0  0
   37.8110   29.9274  -12.3031 O   0  0  0  0  0  0  0  0  0  0  0  0
   35.2751   34.7066  -13.5018 C   0  0  2  0  0  0  0  0  0  0  0  0
   39.1115   38.7335  -12.9056 C   0  0  2  0  0  0  0  0  0  0  0  0
   38.0968   37.8551  -13.4387 O   0  0  0  0  0  0  0  0  0  0  0  0
   39.9060   43.8488  -13.5898 C   0  0  2  0  0  0  0  0  0  0  0  0
   39.3470   43.6515  -14.8916 O   0  0  0  0  0  0  0  0  0  0  0  0
   36.8064   32.0529  -11.7285 C   0  0  2  0  0  0  0  0  0  0  0  0
   37.0602   33.4661  -11.6033 O   0  0  0  0  0  0  0  0  0  0  0  0
   35.5489   36.2078  -13.5636 C   0  0  2  0  0  0  0  0  0  0  0  0
   36.3385   36.5946  -12.4271 O   0  0  0  0  0  0  0  0  0  0  0  0
   40.3735   37.9528  -12.5322 C   0  0  0  0  0  0  0  0  0  0  0  0
   40.0323   36.9381  -11.5851 O   0  0  0  0  0  0  0  0  0  0  0  0
   40.6233   42.5812  -13.1181 C   0  0  1  0  0  0  0  0  0  0  0  0
   39.6709   41.5035  -13.0901 O   0  0  0  0  0  0  0  0  0  0  0  0
   36.3655   31.4788  -10.3797 C   0  0  0  0  0  0  0  0  0  0  0  0
   35.8493   30.1138  -10.5568 O   0  0  0  0  0  0  0  0  0  0  0  0
   34.2385   37.0036  -13.5861 C   0  0  1  0  0  0  0  0  0  0  0  0
   34.5156   38.3980  -13.7339 O   0  0  0  0  0  0  0  0  0  0  0  0
   41.7852   42.1981  -14.0355 C   0  0  0  0  0  0  0  0  0  0  0  0
   41.2602   41.8614  -15.3661 N   0  0  0  0  0  0  0  0  0  0  0  0
  1  2  1  6  0  0  0
  1  7  1  0  0  0  0
  1 30  1  0  0  0  0
  3  4  1  1  0  0  0
  3  9  1  0  0  0  0
  3 39  1  0  0  0  0
  5 10  1  0  0  0  0
  5 26  1  0  0  0  0
  5 32  1  1  0  0  0
  6 12  1  0  0  0  0
  6 36  1  0  0  0  0
  6 19  1  6  0  0  0
  7  8  1  6  0  0  0
  7 14  1  0  0  0  0
  9 16  1  0  0  0  0
 10 11  1  1  0  0  0
 10 18  1  0  0  0  0
 12 13  1  6  0  0  0
 12 20  1  0  0  0  0
 14 15  1  1  0  0  0
 14 22  1  0  0  0  0
 16 17  1  1  0  0  0
 16 24  1  0  0  0  0
 18 19  1  6  0  0  0
 18 25  1  0  0  0  0
 20 21  1  1  0  0  0
 20 27  1  0  0  0  0
 22 23  1  6  0  0  0
 22 29  1  0  0  0  0
 24  2  1  6  0  0  0
 24 31  1  0  0  0  0
 25 26  1  0  0  0  0
 25 33  1  1  0  0  0
 27 28  1  6  0  0  0
 27 35  1  0  0  0  0
 29 30  1  0  0  0  0
 29 37  1  1  0  0  0
 31 32  1  1  0  0  0
 31 39  1  0  0  0  0
 33 34  1  0  0  0  0
 35 36  1  0  0  0  0
 35 41  1  6  0  0  0
 37 38  1  0  0  0  0
 39 40  1  6  0  0  0
 41 42  1  0  0  0  0
M  END
>  <CHROM.1>
-172.77272661,170.51776463,-177.36979947,163.05636323,-167.77030085,60.08641343
-71.27597881,163.90383643,-64.13459544,37.49465307,37.22329400,-12.94572872
-1.83773294,-0.17222240,-0.08006214

>  <Name>
3c44_lig

>  <RI>
0

>  <Rbt.Current_Directory>
/home/itssahil/PROJECTS/Mol_Feturizer/New_Systems/rnas/3c44

>  <Rbt.Executable>
rbdock ($Id: //depot/dev/client3/rdock/2013.1/src/exe/rbdock.cxx#4 $)

>  <Rbt.Library>
libRbt.so (2013.1, Build901 2013/11/27)

>  <Rbt.Parameter_File>
/export/apps/rDock/src/rDock_2013.1_src/data/scripts/dock_solv.prm

>  <Rbt.Receptor>
prm/pocket_docking_2.prm

>  <SCORE>
-25.1297

>  <SCORE.INTER>
-21.5976

>  <SCORE.INTER.CONST>
1

>  <SCORE.INTER.POLAR>
-1.72147

>  <SCORE.INTER.ROT>
9

>  <SCORE.INTER.SOLV>
19.8998

>  <SCORE.INTER.VDW>
-24.8934

>  <SCORE.INTER.norm>
-0.514229

>  <SCORE.INTRA>
-3.53467

>  <SCORE.INTRA.DIHEDRAL>
-10.0148

>  <SCORE.INTRA.DIHEDRAL.0>
14.8538

>  <SCORE.INTRA.POLAR>
0

>  <SCORE.INTRA.POLAR.0>
0

>  <SCORE.INTRA.REPUL>
0.0238943

>  <SCORE.INTRA.REPUL.0>
0

>  <SCORE.INTRA.SOLV>
-2.33163

>  <SCORE.INTRA.SOLV.lig_0>
-100.951

>  <SCORE.INTRA.VDW>
2.51909

>  <SCORE.INTRA.VDW.0>
-5.71388

>  <SCORE.INTRA.norm>
-0.0841588

>  <SCORE.RESTR>
0.00255923

>  <SCORE.RESTR.CAVITY>
0.00255923

>  <SCORE.RESTR.norm>
6.09341e-05

>  <SCORE.SYSTEM>
0

>  <SCORE.SYSTEM.CONST>
0

>  <SCORE.SYSTEM.DIHEDRAL>
0

>  <SCORE.SYSTEM.SOLV>
0

>  <SCORE.SYSTEM.norm>
0

>  <SCORE.heavy>
42

>  <SCORE.norm>
-0.598327

>  <RMSD>
0.936

$$$$
3c44_lig
 OpenBabel11021811463D
libRbt.so/2013.1/901 2013/11/27
 42 45  0  0  0  0  0  0  0  0999 V2000
   37.3595   33.9984  -12.6154 C   0  0  2  0  0  0  0  0  0  0  0  0
   36.3455   33.7697  -13.6059 O   0  0  0  0  0  0  0  0  0  0  0  0
   33.2934   36.3371  -14.7386 C   0  0  2  0  0  0  0  0  0  0  0  0
   32.1180   37.1950  -14.9541 N   0  0  0  0  0  0  0  0  0  0  0  0
   36.8144   37.6874  -12.3612 C   0  0  1  0  0  0  0  0  0  0  0  0
   38.6292   41.4272  -12.0282 C   0  0  1  0  0  0  0  0  0  0  0  0
   38.7275   33.6445  -13.2082 C   0  0  2  0  0  0  0  0  0  0  0  0
   38.9619   34.3788  -14.4599 N   0  0  0  0  0  0  0  0  0  0  0  0
   32.8648   34.8906  -14.4759 C   0  0  0  0  0  0  0  0  0  0  0  0
   37.3437   38.0932  -10.9849 C   0  0  2  0  0  0  0  0  0  0  0  0
   36.3054   38.7172  -10.2271 O   0  0  0  0  0  0  0  0  0  0  0  0
   37.8734   42.7506  -12.1871 C   0  0  2  0  0  0  0  0  0  0  0  0
   36.8957   42.5961  -13.2731 N   0  0  0  0  0  0  0  0  0  0  0  0
   38.8447   32.1428  -13.4804 C   0  0  1  0  0  0  0  0  0  0  0  0
   40.1845   31.8396  -13.8807 O   0  0  0  0  0  0  0  0  0  0  0  0
   34.1325   34.0318  -14.4169 C   0  0  2  0  0  0  0  0  0  0  0  0
   33.7648   32.6425  -14.1046 N   0  0  0  0  0  0  0  0  0  0  0  0
   38.3561   39.1577  -11.4026 C   0  0  2  0  0  0  0  0  0  0  0  0
   37.6900   40.3546  -11.8371 O   0  0  0  0  0  0  0  0  0  0  0  0
   38.8308   43.8960  -12.5412 C   0  0  1  0  0  0  0  0  0  0  0  0
   39.6480   44.2295  -11.4161 O   0  0  0  0  0  0  0  0  0  0  0  0
   38.4995   31.3572  -12.2139 C   0  0  2  0  0  0  0  0  0  0  0  0
   38.5029   29.9564  -12.5016 O   0  0  0  0  0  0  0  0  0  0  0  0
   35.1427   34.5233  -13.3727 C   0  0  2  0  0  0  0  0  0  0  0  0
   39.0017   38.4728  -12.5968 C   0  0  2  0  0  0  0  0  0  0  0  0
   37.9988   37.6100  -13.1759 O   0  0  0  0  0  0  0  0  0  0  0  0
   39.7383   43.5120  -13.7112 C   0  0  2  0  0  0  0  0  0  0  0  0
   38.9425   43.3941  -14.8939 O   0  0  0  0  0  0  0  0  0  0  0  0
   37.1169   31.7766  -11.7122 C   0  0  2  0  0  0  0  0  0  0  0  0
   37.0913   33.1939  -11.4518 O   0  0  0  0  0  0  0  0  0  0  0  0
   35.4299   36.0220  -13.4346 C   0  0  2  0  0  0  0  0  0  0  0  0
   36.1460   36.4184  -12.2536 O   0  0  0  0  0  0  0  0  0  0  0  0
   40.2155   37.6676  -12.1281 C   0  0  0  0  0  0  0  0  0  0  0  0
   40.8680   37.1004  -13.2663 O   0  0  0  0  0  0  0  0  0  0  0  0
   40.4240   42.1807  -13.3931 C   0  0  1  0  0  0  0  0  0  0  0  0
   39.4084   41.1787  -13.2091 O   0  0  0  0  0  0  0  0  0  0  0  0
   36.8366   31.0022  -10.4218 C   0  0  0  0  0  0  0  0  0  0  0  0
   35.4051   31.0686  -10.0944 O   0  0  0  0  0  0  0  0  0  0  0  0
   34.1290   36.8251  -13.5524 C   0  0  1  0  0  0  0  0  0  0  0  0
   34.4245   38.2159  -13.6986 O   0  0  0  0  0  0  0  0  0  0  0  0
   41.3695   41.7353  -14.5094 C   0  0  0  0  0  0  0  0  0  0  0  0
   42.4602   42.7117  -14.6379 N   0  0  0  0  0  0  0  0  0  0  0  0
  1  2  1  6  0  0  0
  1  7  1  0  0  0  0
  1 30  1  0  0  0  0
  3  4  1  1  0  0  0
  3  9  1  0  0  0  0
  3 39  1  0  0  0  0
  5 10  1  0  0  0  0
  5 26  1  0  0  0  0
  5 32  1  1  0  0  0
  6 12  1  0  0  0  0
  6 36  1  0  0  0  0
  6 19  1  6  0  0  0
  7  8  1  6  0  0  0
  7 14  1  0  0  0  0
  9 16  1  0  0  0  0
 10 11  1  1  0  0  0
 10 18  1  0  0  0  0
 12 13  1  6  0  0  0
 12 20  1  0  0  0  0
 14 15  1  1  0  0  0
 14 22  1  0  0  0  0
 16 17  1  1  0  0  0
 16 24  1  0  0  0  0
 18 19  1  6  0  0  0
 18 25  1  0  0  0  0
 20 21  1  1  0  0  0
 20 27  1  0  0  0  0
 22 23  1  6  0  0  0
 22 29  1  0  0  0  0
 24  2  1  6  0  0  0
 24 31  1  0  0  0  0
 25 26  1  0  0  0  0
 25 33  1  1  0  0  0
 27 28  1  6  0  0  0
 27 35  1  0  0  0  0
 29 30  1  0  0  0  0
 29 37  1  1  0  0  0
 31 32  1  1  0  0  0
 31 39  1  0  0  0  0
 33 34  1  0  0  0  0
 35 36  1  0  0  0  0
 35 41  1  6  0  0  0
 37 38  1  0  0  0  0
 39 40  1  6  0  0  0
 41 42  1  0  0  0  0
M  END
>  <CHROM.1>
-157.33054928,171.07156952,-167.64886293,170.84342478,-173.50096840,-176.17150898
-164.31388622,162.48994630,63.63534256,37.49762817,37.12242810,-12.89966099
-1.84985542,-0.11202434,-0.07054620

>  <Name>
3c44_lig

>  <RI>
224

>  <Rbt.Current_Directory>
/home/itssahil/PROJECTS/Mol_Feturizer/New_Systems/rnas/3c44

>  <Rbt.Executable>
rbdock ($Id: //depot/dev/client3/rdock/2013.1/src/exe/rbdock.cxx#4 $)

>  <Rbt.Library>
libRbt.so (2013.1, Build901 2013/11/27)

>  <Rbt.Parameter_File>
/export/apps/rDock/src/rDock_2013.1_src/data/scripts/dock_solv.prm

>  <Rbt.Receptor>
prm/pocket_docking_3.prm

>  <SCORE>
-25.7128

>  <SCORE.INTER>
-21.911

>  <SCORE.INTER.CONST>
1

>  <SCORE.INTER.POLAR>
-1.65766

>  <SCORE.INTER.ROT>
9

>  <SCORE.INTER.SOLV>
21.8122

>  <SCORE.INTER.VDW>
-25.9525

>  <SCORE.INTER.norm>
-0.521691

>  <SCORE.INTRA>
-3.80174

>  <SCORE.INTRA.DIHEDRAL>
-8.07609

>  <SCORE.INTRA.DIHEDRAL.0>
14.8538

>  <SCORE.INTRA.POLAR>
0

>  <SCORE.INTRA.POLAR.0>
0

>  <SCORE.INTRA.REPUL>
0.0128579

>  <SCORE.INTRA.REPUL.0>
0

>  <SCORE.INTRA.SOLV>
-3.66268

>  <SCORE.INTRA.SOLV.lig_0>
-100.951

>  <SCORE.INTRA.VDW>
2.00336

>  <SCORE.INTRA.VDW.0>
-5.71388

>  <SCORE.INTRA.norm>
-0.0905176

>  <SCORE.RESTR>
0

>  <SCORE.RESTR.CAVITY>
0

>  <SCORE.RESTR.norm>
0

>  <SCORE.SYSTEM>
0

>  <SCORE.SYSTEM.CONST>
0

>  <SCORE.SYSTEM.DIHEDRAL>
0

>  <SCORE.SYSTEM.SOLV>
0

>  <SCORE.SYSTEM.norm>
0

>  <SCORE.heavy>
42

>  <SCORE.norm>
-0.612208

>  <RMSD>
0.953

$$$$
3c44_lig
 OpenBabel11021811463D
libRbt.so/2013.1/901 2013/11/27
 42 45  0  0  0  0  0  0  0  0999 V2000
   37.3620   34.1125  -12.8277 C   0  0  2  0  0  0  0  0  0  0  0  0
   36.3040   33.8486  -13.7619 O   0  0  0  0  0  0  0  0  0  0  0  0
   33.1840   36.3805  -14.7837 C   0  0  2  0  0  0  0  0  0  0  0  0
   31.9922   37.2254  -14.9565 N   0  0  0  0  0  0  0  0  0  0  0  0
   36.7689   37.7792  -12.5404 C   0  0  1  0  0  0  0  0  0  0  0  0
   38.5388   41.5697  -12.1437 C   0  0  1  0  0  0  0  0  0  0  0  0
   38.6626   33.4998  -13.3578 C   0  0  2  0  0  0  0  0  0  0  0  0
   38.9532   33.9814  -14.7159 N   0  0  0  0  0  0  0  0  0  0  0  0
   32.7811   34.9302  -14.5018 C   0  0  0  0  0  0  0  0  0  0  0  0
   37.3911   38.1682  -11.1985 C   0  0  2  0  0  0  0  0  0  0  0  0
   36.4021   38.7629  -10.3559 O   0  0  0  0  0  0  0  0  0  0  0  0
   37.7297   42.8596  -12.3149 C   0  0  2  0  0  0  0  0  0  0  0  0
   36.8224   42.6869  -13.4577 N   0  0  0  0  0  0  0  0  0  0  0  0
   38.5915   31.9708  -13.3743 C   0  0  1  0  0  0  0  0  0  0  0  0
   39.8749   31.4431  -13.7231 O   0  0  0  0  0  0  0  0  0  0  0  0
   34.0592   34.0851  -14.4890 C   0  0  2  0  0  0  0  0  0  0  0  0
   33.7185   32.6928  -14.1598 N   0  0  0  0  0  0  0  0  0  0  0  0
   38.3559   39.2552  -11.6681 C   0  0  2  0  0  0  0  0  0  0  0  0
   37.6436   40.4495  -12.0305 O   0  0  0  0  0  0  0  0  0  0  0  0
   38.6487   44.0575  -12.5881 C   0  0  1  0  0  0  0  0  0  0  0  0
   39.3851   44.4004  -11.4113 O   0  0  0  0  0  0  0  0  0  0  0  0
   38.1851   31.4551  -11.9926 C   0  0  2  0  0  0  0  0  0  0  0  0
   38.0128   30.0363  -12.0409 O   0  0  0  0  0  0  0  0  0  0  0  0
   35.1030   34.5900  -13.4849 C   0  0  2  0  0  0  0  0  0  0  0  0
   38.9224   38.6016  -12.9187 C   0  0  2  0  0  0  0  0  0  0  0  0
   37.8921   37.7343  -13.4399 O   0  0  0  0  0  0  0  0  0  0  0  0
   39.6371   43.7467  -13.7133 C   0  0  2  0  0  0  0  0  0  0  0  0
   38.9147   43.6216  -14.9415 O   0  0  0  0  0  0  0  0  0  0  0  0
   36.8757   32.1186  -11.5632 C   0  0  2  0  0  0  0  0  0  0  0  0
   37.0273   33.5517  -11.5445 O   0  0  0  0  0  0  0  0  0  0  0  0
   35.3716   36.0915  -13.5610 C   0  0  2  0  0  0  0  0  0  0  0  0
   36.1277   36.4986  -12.4089 O   0  0  0  0  0  0  0  0  0  0  0  0
   40.1780   37.8065  -12.5543 C   0  0  0  0  0  0  0  0  0  0  0  0
   39.8158   36.7361  -11.6791 O   0  0  0  0  0  0  0  0  0  0  0  0
   40.3679   42.4414  -13.3874 C   0  0  1  0  0  0  0  0  0  0  0  0
   39.3934   41.3883  -13.2840 O   0  0  0  0  0  0  0  0  0  0  0  0
   36.5358   31.6099  -10.1600 C   0  0  0  0  0  0  0  0  0  0  0  0
   36.1572   30.1906  -10.2158 O   0  0  0  0  0  0  0  0  0  0  0  0
   34.0587   36.8805  -13.6312 C   0  0  1  0  0  0  0  0  0  0  0  0
   34.3335   38.2739  -13.7916 O   0  0  0  0  0  0  0  0  0  0  0  0
   41.3942   42.0697  -14.4583 C   0  0  0  0  0  0  0  0  0  0  0  0
   42.4038   43.1336  -14.5509 N   0  0  0  0  0  0  0  0  0  0  0  0
  1  2  1  6  0  0  0
  1  7  1  0  0  0  0
  1 30  1  0  0  0  0
  3  4  1  1  0  0  0
  3  9  1  0  0  0  0
  3 39  1  0  0  0  0
  5 10  1  0  0  0  0
  5 26  1  0  0  0  0
  5 32  1  1  0  0  0
  6 12  1  0  0  0  0
  6 36  1  0  0  0  0
  6 19  1  6  0  0  0
  7  8  1  6  0  0  0
  7 14  1  0  0  0  0
  9 16  1  0  0  0  0
 10 11  1  1  0  0  0
 10 18  1  0  0  0  0
 12 13  1  6  0  0  0
 12 20  1  0  0  0  0
 14 15  1  1  0  0  0
 14 22  1  0  0  0  0
 16 17  1  1  0  0  0
 16 24  1  0  0  0  0
 18 19  1  6  0  0  0
 18 25  1  0  0  0  0
 20 21  1  1  0  0  0
 20 27  1  0  0  0  0
 22 23  1  6  0  0  0
 22 29  1  0  0  0  0
 24  2  1  6  0  0  0
 24 31  1  0  0  0  0
 25 26  1  0  0  0  0
 25 33  1  1  0  0  0
 27 28  1  6  0  0  0
 27 35  1  0  0  0  0
 29 30  1  0  0  0  0
 29 37  1  1  0  0  0
 31 32  1  1  0  0  0
 31 39  1  0  0  0  0
 33 34  1  0  0  0  0
 35 36  1  0  0  0  0
 35 41  1  6  0  0  0
 37 38  1  0  0  0  0
 39 40  1  6  0  0  0
 41 42  1  0  0  0  0
M  END
>  <CHROM.1>
-169.03545448,173.15868257,-171.28492162,165.32719829,-174.76867316,64.39512312
-69.52165341,162.97049167,60.73225509,37.39530943,37.19017229,-12.92349370
-1.83900961,-0.19609835,-0.10102652

>  <Name>
3c44_lig

>  <RI>
224

>  <Rbt.Current_Directory>
/home/itssahil/PROJECTS/Mol_Feturizer/New_Systems/rnas/3c44

>  <Rbt.Executable>
rbdock ($Id: //depot/dev/client3/rdock/2013.1/src/exe/rbdock.cxx#4 $)

>  <Rbt.Library>
libRbt.so (2013.1, Build901 2013/11/27)

>  <Rbt.Parameter_File>
/export/apps/rDock/src/rDock_2013.1_src/data/scripts/dock_solv.prm

>  <Rbt.Receptor>
prm/pocket_docking_3.prm

>  <SCORE>
-26.337

>  <SCORE.INTER>
-21.9133

>  <SCORE.INTER.CONST>
1

>  <SCORE.INTER.POLAR>
-1.72397

>  <SCORE.INTER.ROT>
9

>  <SCORE.INTER.SOLV>
21.6778

>  <SCORE.INTER.VDW>
-25.6883

>  <SCORE.INTER.norm>
-0.521746

>  <SCORE.INTRA>
-4.42368

>  <SCORE.INTRA.DIHEDRAL>
-10.4015

>  <SCORE.INTRA.DIHEDRAL.0>
14.8538

>  <SCORE.INTRA.POLAR>
0

>  <SCORE.INTRA.POLAR.0>
0

>  <SCORE.INTRA.REPUL>
0.0118568

>  <SCORE.INTRA.REPUL.0>
0

>  <SCORE.INTRA.SOLV>
-3.8334

>  <SCORE.INTRA.SOLV.lig_0>
-100.951

>  <SCORE.INTRA.VDW>
2.63449

>  <SCORE.INTRA.VDW.0>
-5.71388

>  <SCORE.INTRA.norm>
-0.105326

>  <SCORE.RESTR>
0

>  <SCORE.RESTR.CAVITY>
0

>  <SCORE.RESTR.norm>
0

>  <SCORE.SYSTEM>
0

>  <SCORE.SYSTEM.CONST>
0

>  <SCORE.SYSTEM.DIHEDRAL>
0

>  <SCORE.SYSTEM.SOLV>
0

>  <SCORE.SYSTEM.norm>
0

>  <SCORE.heavy>
42

>  <SCORE.norm>
-0.627072

>  <RMSD>
0.956

$$$$
3c44_lig
 OpenBabel11021811463D
libRbt.so/2013.1/901 2013/11/27
 42 45  0  0  0  0  0  0  0  0999 V2000
   37.4758   34.0249  -12.8146 C   0  0  2  0  0  0  0  0  0  0  0  0
   36.4480   33.9078  -13.8103 O   0  0  0  0  0  0  0  0  0  0  0  0
   33.3623   36.5156  -14.7416 C   0  0  2  0  0  0  0  0  0  0  0  0
   32.1851   37.3867  -14.8813 N   0  0  0  0  0  0  0  0  0  0  0  0
   36.9756   37.8345  -12.5283 C   0  0  1  0  0  0  0  0  0  0  0  0
   38.6645   41.6572  -12.0376 C   0  0  1  0  0  0  0  0  0  0  0  0
   38.7412   33.3210  -13.3158 C   0  0  2  0  0  0  0  0  0  0  0  0
   39.1440   33.8407  -14.6306 N   0  0  0  0  0  0  0  0  0  0  0  0
   32.9349   35.0703  -14.4702 C   0  0  0  0  0  0  0  0  0  0  0  0
   37.5475   38.2290  -11.1658 C   0  0  2  0  0  0  0  0  0  0  0  0
   36.5221   38.8046  -10.3540 O   0  0  0  0  0  0  0  0  0  0  0  0
   37.8507   42.9153  -12.3580 C   0  0  2  0  0  0  0  0  0  0  0  0
   37.0899   42.6711  -13.5911 N   0  0  0  0  0  0  0  0  0  0  0  0
   38.5329   31.8080  -13.4190 C   0  0  1  0  0  0  0  0  0  0  0  0
   39.7795   31.1812  -13.7355 O   0  0  0  0  0  0  0  0  0  0  0  0
   34.1954   34.1992  -14.4921 C   0  0  2  0  0  0  0  0  0  0  0  0
   33.8322   32.8100  -14.1739 N   0  0  0  0  0  0  0  0  0  0  0  0
   38.5091   39.3331  -11.6007 C   0  0  2  0  0  0  0  0  0  0  0  0
   37.7895   40.5169  -11.9826 O   0  0  0  0  0  0  0  0  0  0  0  0
   38.7664   44.1276  -12.5723 C   0  0  1  0  0  0  0  0  0  0  0  0
   39.3494   44.5381  -11.3327 O   0  0  0  0  0  0  0  0  0  0  0  0
   38.0106   31.2640  -12.0880 C   0  0  2  0  0  0  0  0  0  0  0  0
   37.7132   29.8716  -12.2216 O   0  0  0  0  0  0  0  0  0  0  0  0
   35.2678   34.6699  -13.5016 C   0  0  2  0  0  0  0  0  0  0  0  0
   39.1264   38.6931  -12.8341 C   0  0  2  0  0  0  0  0  0  0  0  0
   38.1278   37.8110  -13.3910 O   0  0  0  0  0  0  0  0  0  0  0  0
   39.8887   43.8011  -13.5589 C   0  0  2  0  0  0  0  0  0  0  0  0
   39.3205   43.6064  -14.8572 O   0  0  0  0  0  0  0  0  0  0  0  0
   36.7462   32.0243  -11.6849 C   0  0  2  0  0  0  0  0  0  0  0  0
   37.0258   33.4344  -11.5810 O   0  0  0  0  0  0  0  0  0  0  0  0
   35.5658   36.1665  -13.5640 C   0  0  2  0  0  0  0  0  0  0  0  0
   36.3514   36.5432  -12.4213 O   0  0  0  0  0  0  0  0  0  0  0  0
   40.3823   37.9172  -12.4315 C   0  0  0  0  0  0  0  0  0  0  0  0
   41.0077   37.3976  -13.6071 O   0  0  0  0  0  0  0  0  0  0  0  0
   40.6069   42.5316  -13.0937 C   0  0  1  0  0  0  0  0  0  0  0  0
   39.6526   41.4556  -13.0606 O   0  0  0  0  0  0  0  0  0  0  0  0
   36.2895   31.4800  -10.3290 C   0  0  0  0  0  0  0  0  0  0  0  0
   35.7692   30.1138  -10.4831 O   0  0  0  0  0  0  0  0  0  0  0  0
   34.2683   36.9828  -13.5996 C   0  0  1  0  0  0  0  0  0  0  0  0
   34.5688   38.3723  -13.7478 O   0  0  0  0  0  0  0  0  0  0  0  0
   41.7618   42.1475  -14.0195 C   0  0  0  0  0  0  0  0  0  0  0  0
   41.2354   41.8846  -15.3661 N   0  0  0  0  0  0  0  0  0  0  0  0
  1  2  1  6  0  0  0
  1  7  1  0  0  0  0
  1 30  1  0  0  0  0
  3  4  1  1  0  0  0
  3  9  1  0  0  0  0
  3 39  1  0  0  0  0
  5 10  1  0  0  0  0
  5 26  1  0  0  0  0
  5 32  1  1  0  0  0
  6 12  1  0  0  0  0
  6 36  1  0  0  0  0
  6 19  1  6  0  0  0
  7  8  1  6  0  0  0
  7 14  1  0  0  0  0
  9 16  1  0  0  0  0
 10 11  1  1  0  0  0
 10 18  1  0  0  0  0
 12 13  1  6  0  0  0
 12 20  1  0  0  0  0
 14 15  1  1  0  0  0
 14 22  1  0  0  0  0
 16 17  1  1  0  0  0
 16 24  1  0  0  0  0
 18 19  1  6  0  0  0
 18 25  1  0  0  0  0
 20 21  1  1  0  0  0
 20 27  1  0  0  0  0
 22 23  1  6  0  0  0
 22 29  1  0  0  0  0
 24  2  1  6  0  0  0
 24 31  1  0  0  0  0
 25 26  1  0  0  0  0
 25 33  1  1  0  0  0
 27 28  1  6  0  0  0
 27 35  1  0  0  0  0
 29 30  1  0  0  0  0
 29 37  1  1  0  0  0
 31 32  1  1  0  0  0
 31 39  1  0  0  0  0
 33 34  1  0  0  0  0
 35 36  1  0  0  0  0
 35 41  1  6  0  0  0
 37 38  1  0  0  0  0
 39 40  1  6  0  0  0
 41 42  1  0  0  0  0
M  END
>  <CHROM.1>
-173.19270006,169.20288984,-176.35655955,164.18011265,-168.36479830,-175.98209810
-70.34188325,165.19713301,-61.07016750,37.50430051,37.19447083,-12.97236476
-1.84197297,-0.12555225,-0.07030164

>  <Name>
3c44_lig

>  <RI>
0

>  <Rbt.Current_Directory>
/home/itssahil/PROJECTS/Mol_Feturizer/New_Systems/rnas/3c44

>  <Rbt.Executable>
rbdock ($Id: //depot/dev/client3/rdock/2013.1/src/exe/rbdock.cxx#4 $)

>  <Rbt.Library>
libRbt.so (2013.1, Build901 2013/11/27)

>  <Rbt.Parameter_File>
/export/apps/rDock/src/rDock_2013.1_src/data/scripts/dock_solv.prm

>  <Rbt.Receptor>
prm/pocket_docking_2.prm

>  <SCORE>
-25.5514

>  <SCORE.INTER>
-21.6206

>  <SCORE.INTER.CONST>
1

>  <SCORE.INTER.POLAR>
-1.72323

>  <SCORE.INTER.ROT>
9

>  <SCORE.INTER.SOLV>
19.1058

>  <SCORE.INTER.VDW>
-24.6382

>  <SCORE.INTER.norm>
-0.514776

>  <SCORE.INTRA>
-3.94875

>  <SCORE.INTRA.DIHEDRAL>
-10.348

>  <SCORE.INTRA.DIHEDRAL.0>
14.8538

>  <SCORE.INTRA.POLAR>
0

>  <SCORE.INTRA.POLAR.0>
0

>  <SCORE.INTRA.REPUL>
0.0341359

>  <SCORE.INTRA.REPUL.0>
0

>  <SCORE.INTRA.SOLV>
-3.02711

>  <SCORE.INTRA.SOLV.lig_0>
-100.951

>  <SCORE.INTRA.VDW>
2.56815

>  <SCORE.INTRA.VDW.0>
-5.71388

>  <SCORE.INTRA.norm>
-0.0940179

>  <SCORE.RESTR>
0.017971

>  <SCORE.RESTR.CAVITY>
0.017971

>  <SCORE.RESTR.norm>
0.000427881

>  <SCORE.SYSTEM>
0

>  <SCORE.SYSTEM.CONST>
0

>  <SCORE.SYSTEM.DIHEDRAL>
0

>  <SCORE.SYSTEM.SOLV>
0

>  <SCORE.SYSTEM.norm>
0

>  <SCORE.heavy>
42

>  <SCORE.norm>
-0.608366

>  <RMSD>
0.962

$$$$
3c44_lig
 OpenBabel11021811463D
libRbt.so/2013.1/901 2013/11/27
 42 45  0  0  0  0  0  0  0  0999 V2000
   37.4255   34.5373  -12.7167 C   0  0  2  0  0  0  0  0  0  0  0  0
   36.4791   34.3566  -13.7813 O   0  0  0  0  0  0  0  0  0  0  0  0
   33.2114   36.6669  -14.8650 C   0  0  2  0  0  0  0  0  0  0  0  0
   31.9650   37.4223  -15.0641 N   0  0  0  0  0  0  0  0  0  0  0  0
   36.7477   38.2037  -12.5200 C   0  0  1  0  0  0  0  0  0  0  0  0
   38.5946   41.9760  -12.0249 C   0  0  1  0  0  0  0  0  0  0  0  0
   38.8443   34.4014  -13.2794 C   0  0  2  0  0  0  0  0  0  0  0  0
   39.0523   35.3243  -14.4046 N   0  0  0  0  0  0  0  0  0  0  0  0
   32.9117   35.1839  -14.6284 C   0  0  0  0  0  0  0  0  0  0  0  0
   37.2944   38.6273  -11.1559 C   0  0  2  0  0  0  0  0  0  0  0  0
   36.2750   39.2911  -10.4062 O   0  0  0  0  0  0  0  0  0  0  0  0
   37.8524   43.2568  -12.4208 C   0  0  2  0  0  0  0  0  0  0  0  0
   37.2105   43.0341  -13.7237 N   0  0  0  0  0  0  0  0  0  0  0  0
   39.1226   32.9711  -13.7482 C   0  0  1  0  0  0  0  0  0  0  0  0
   40.5008   32.8552  -14.1151 O   0  0  0  0  0  0  0  0  0  0  0  0
   34.2499   34.4385  -14.5859 C   0  0  2  0  0  0  0  0  0  0  0  0
   34.0059   33.0169  -14.2987 N   0  0  0  0  0  0  0  0  0  0  0  0
   38.3279   39.6593  -11.6026 C   0  0  2  0  0  0  0  0  0  0  0  0
   37.6862   40.8612  -12.0595 O   0  0  0  0  0  0  0  0  0  0  0  0
   38.8190   44.4423  -12.5406 C   0  0  1  0  0  0  0  0  0  0  0  0
   39.2882   44.8363  -11.2485 O   0  0  0  0  0  0  0  0  0  0  0  0
   38.8090   31.9851  -12.6214 C   0  0  2  0  0  0  0  0  0  0  0  0
   38.9647   30.6458  -13.0977 O   0  0  0  0  0  0  0  0  0  0  0  0
   35.2155   34.9976  -13.5336 C   0  0  2  0  0  0  0  0  0  0  0  0
   38.9506   38.9341  -12.7851 C   0  0  2  0  0  0  0  0  0  0  0  0
   37.9251   38.0818  -13.3395 O   0  0  0  0  0  0  0  0  0  0  0  0
   40.0235   44.0836  -13.4125 C   0  0  2  0  0  0  0  0  0  0  0  0
   39.5810   43.9049  -14.7609 O   0  0  0  0  0  0  0  0  0  0  0  0
   37.3727   32.1971  -12.1406 C   0  0  2  0  0  0  0  0  0  0  0  0
   37.1944   33.5545  -11.6901 O   0  0  0  0  0  0  0  0  0  0  0  0
   35.3703   36.5166  -13.5684 C   0  0  2  0  0  0  0  0  0  0  0  0
   36.0516   36.9528  -12.3809 O   0  0  0  0  0  0  0  0  0  0  0  0
   40.1488   38.1120  -12.3057 C   0  0  0  0  0  0  0  0  0  0  0  0
   41.0879   38.9818  -11.6695 O   0  0  0  0  0  0  0  0  0  0  0  0
   40.6558   42.7942  -12.8818 C   0  0  1  0  0  0  0  0  0  0  0  0
   39.6727   41.7459  -12.9459 O   0  0  0  0  0  0  0  0  0  0  0  0
   37.1216   31.2250  -10.9850 C   0  0  0  0  0  0  0  0  0  0  0  0
   37.0104   29.8513  -11.4965 O   0  0  0  0  0  0  0  0  0  0  0  0
   34.0038   37.2047  -13.6707 C   0  0  1  0  0  0  0  0  0  0  0  0
   34.1761   38.6184  -13.7918 O   0  0  0  0  0  0  0  0  0  0  0  0
   41.8851   42.3771  -13.6901 C   0  0  0  0  0  0  0  0  0  0  0  0
   41.4719   42.0386  -15.0591 N   0  0  0  0  0  0  0  0  0  0  0  0
  1  2  1  6  0  0  0
  1  7  1  0  0  0  0
  1 30  1  0  0  0  0
  3  4  1  1  0  0  0
  3  9  1  0  0  0  0
  3 39  1  0  0  0  0
  5 10  1  0  0  0  0
  5 26  1  0  0  0  0
  5 32  1  1  0  0  0
  6 12  1  0  0  0  0
  6 36  1  0  0  0  0
  6 19  1  6  0  0  0
  7  8  1  6  0  0  0
  7 14  1  0  0  0  0
  9 16  1  0  0  0  0
 10 11  1  1  0  0  0
 10 18  1  0  0  0  0
 12 13  1  6  0  0  0
 12 20  1  0  0  0  0
 14 15  1  1  0  0  0
 14 22  1  0  0  0  0
 16 17  1  1  0  0  0
 16 24  1  0  0  0  0
 18 19  1  6  0  0  0
 18 25  1  0  0  0  0
 20 21  1  1  0  0  0
 20 27  1  0  0  0  0
 22 23  1  6  0  0  0
 22 29  1  0  0  0  0
 24  2  1  6  0  0  0
 24 31  1  0  0  0  0
 25 26  1  0  0  0  0
 25 33  1  1  0  0  0
 27 28  1  6  0  0  0
 27 35  1  0  0  0  0
 29 30  1  0  0  0  0
 29 37  1  1  0  0  0
 31 32  1  1  0  0  0
 31 39  1  0  0  0  0
 33 34  1  0  0  0  0
 35 36  1  0  0  0  0
 35 41  1  6  0  0  0
 37 38  1  0  0  0  0
 39 40  1  6  0  0  0
 41 42  1  0  0  0  0
M  END
>  <CHROM.1>
-155.02791489,173.79977952,-175.95237997,159.35306937,-167.19808436,-57.68598865
-72.31364755,155.11275199,-64.98002636,37.60910030,37.61053093,-13.00795488
-1.83223140,-0.16914160,-0.02883007

>  <Name>
3c44_lig

>  <RI>
0

>  <Rbt.Current_Directory>
/home/itssahil/PROJECTS/Mol_Feturizer/New_Systems/rnas/3c44

>  <Rbt.Executable>
rbdock ($Id: //depot/dev/client3/rdock/2013.1/src/exe/rbdock.cxx#4 $)

>  <Rbt.Library>
libRbt.so (2013.1, Build901 2013/11/27)

>  <Rbt.Parameter_File>
/export/apps/rDock/src/rDock_2013.1_src/data/scripts/dock_solv.prm

>  <Rbt.Receptor>
prm/pocket_docking_2.prm

>  <SCORE>
-21.5771

>  <SCORE.INTER>
-19.8936

>  <SCORE.INTER.CONST>
1

>  <SCORE.INTER.POLAR>
-1.2303

>  <SCORE.INTER.ROT>
9

>  <SCORE.INTER.SOLV>
19.1441

>  <SCORE.INTER.VDW>
-25.1428

>  <SCORE.INTER.norm>
-0.473657

>  <SCORE.INTRA>
-1.75424

>  <SCORE.INTRA.DIHEDRAL>
-5.64334

>  <SCORE.INTRA.DIHEDRAL.0>
14.8538

>  <SCORE.INTRA.POLAR>
0

>  <SCORE.INTRA.POLAR.0>
0

>  <SCORE.INTRA.REPUL>
0

>  <SCORE.INTRA.REPUL.0>
0

>  <SCORE.INTRA.SOLV>
-0.461531

>  <SCORE.INTRA.SOLV.lig_0>
-100.951

>  <SCORE.INTRA.VDW>
1.29819

>  <SCORE.INTRA.VDW.0>
-5.71388

>  <SCORE.INTRA.norm>
-0.0417677

>  <SCORE.RESTR>
0.0707287

>  <SCORE.RESTR.CAVITY>
0.0707287

>  <SCORE.RESTR.norm>
0.00168402

>  <SCORE.SYSTEM>
0

>  <SCORE.SYSTEM.CONST>
0

>  <SCORE.SYSTEM.DIHEDRAL>
0

>  <SCORE.SYSTEM.SOLV>
0

>  <SCORE.SYSTEM.norm>
0

>  <SCORE.heavy>
42

>  <SCORE.norm>
-0.51374

>  <RMSD>
0.962

$$$$
3c44_lig
 OpenBabel11021811463D
libRbt.so/2013.1/901 2013/11/27
 42 45  0  0  0  0  0  0  0  0999 V2000
   37.2500   34.0825  -12.7329 C   0  0  2  0  0  0  0  0  0  0  0  0
   36.3084   33.9882  -13.8128 O   0  0  0  0  0  0  0  0  0  0  0  0
   33.1972   36.4936  -14.9233 C   0  0  2  0  0  0  0  0  0  0  0  0
   32.0031   37.3272  -15.1305 N   0  0  0  0  0  0  0  0  0  0  0  0
   36.6945   37.9169  -12.5595 C   0  0  1  0  0  0  0  0  0  0  0  0
   38.3491   41.7607  -11.8333 C   0  0  1  0  0  0  0  0  0  0  0  0
   38.5863   33.4802  -13.1795 C   0  0  2  0  0  0  0  0  0  0  0  0
   39.0585   34.1140  -14.4190 N   0  0  0  0  0  0  0  0  0  0  0  0
   32.8003   35.0380  -14.6611 C   0  0  0  0  0  0  0  0  0  0  0  0
   37.2744   38.3029  -11.1980 C   0  0  2  0  0  0  0  0  0  0  0  0
   36.2563   38.8832  -10.3804 O   0  0  0  0  0  0  0  0  0  0  0  0
   37.6045   42.9940  -12.3551 C   0  0  2  0  0  0  0  0  0  0  0  0
   37.2006   42.7357  -13.7441 N   0  0  0  0  0  0  0  0  0  0  0  0
   38.4694   31.9705  -13.4034 C   0  0  1  0  0  0  0  0  0  0  0  0
   39.7689   31.4306  -13.6625 O   0  0  0  0  0  0  0  0  0  0  0  0
   34.0859   34.2056  -14.6109 C   0  0  2  0  0  0  0  0  0  0  0  0
   33.7489   32.8084  -14.2992 N   0  0  0  0  0  0  0  0  0  0  0  0
   38.2421   39.4016  -11.6331 C   0  0  2  0  0  0  0  0  0  0  0  0
   37.5294   40.5917  -12.0085 O   0  0  0  0  0  0  0  0  0  0  0  0
   38.5026   44.2376  -12.3231 C   0  0  1  0  0  0  0  0  0  0  0  0
   38.7277   44.6562  -10.9744 O   0  0  0  0  0  0  0  0  0  0  0  0
   37.8785   31.3054  -12.1589 C   0  0  2  0  0  0  0  0  0  0  0  0
   37.6687   29.9136  -12.4118 O   0  0  0  0  0  0  0  0  0  0  0  0
   35.0916   34.7161  -13.5714 C   0  0  2  0  0  0  0  0  0  0  0  0
   38.8501   38.7612  -12.8710 C   0  0  2  0  0  0  0  0  0  0  0  0
   37.8432   37.8879  -13.4268 O   0  0  0  0  0  0  0  0  0  0  0  0
   39.8538   43.9570  -12.9826 C   0  0  2  0  0  0  0  0  0  0  0  0
   39.6510   43.7551  -14.3841 O   0  0  0  0  0  0  0  0  0  0  0  0
   36.5475   31.9710  -11.8059 C   0  0  2  0  0  0  0  0  0  0  0  0
   36.7408   33.3817  -11.5827 O   0  0  0  0  0  0  0  0  0  0  0  0
   35.3472   36.2206  -13.6320 C   0  0  2  0  0  0  0  0  0  0  0  0
   36.0616   36.6296  -12.4542 O   0  0  0  0  0  0  0  0  0  0  0  0
   40.1021   37.9752  -12.4757 C   0  0  0  0  0  0  0  0  0  0  0  0
   40.6834   37.4014  -13.6486 O   0  0  0  0  0  0  0  0  0  0  0  0
   40.4686   42.7078  -12.3458 C   0  0  1  0  0  0  0  0  0  0  0  0
   39.5761   41.6007  -12.5628 O   0  0  0  0  0  0  0  0  0  0  0  0
   36.0199   31.3071  -10.5314 C   0  0  0  0  0  0  0  0  0  0  0  0
   36.8877   31.6404   -9.3926 O   0  0  0  0  0  0  0  0  0  0  0  0
   34.0292   36.9967  -13.7409 C   0  0  1  0  0  0  0  0  0  0  0  0
   34.2949   38.3936  -13.8860 O   0  0  0  0  0  0  0  0  0  0  0  0
   41.8375   42.3701  -12.9380 C   0  0  0  0  0  0  0  0  0  0  0  0
   42.5170   41.4028  -12.0651 N   0  0  0  0  0  0  0  0  0  0  0  0
  1  2  1  6  0  0  0
  1  7  1  0  0  0  0
  1 30  1  0  0  0  0
  3  4  1  1  0  0  0
  3  9  1  0  0  0  0
  3 39  1  0  0  0  0
  5 10  1  0  0  0  0
  5 26  1  0  0  0  0
  5 32  1  1  0  0  0
  6 12  1  0  0  0  0
  6 36  1  0  0  0  0
  6 19  1  6  0  0  0
  7  8  1  6  0  0  0
  7 14  1  0  0  0  0
  9 16  1  0  0  0  0
 10 11  1  1  0  0  0
 10 18  1  0  0  0  0
 12 13  1  6  0  0  0
 12 20  1  0  0  0  0
 14 15  1  1  0  0  0
 14 22  1  0  0  0  0
 16 17  1  1  0  0  0
 16 24  1  0  0  0  0
 18 19  1  6  0  0  0
 18 25  1  0  0  0  0
 20 21  1  1  0  0  0
 20 27  1  0  0  0  0
 22 23  1  6  0  0  0
 22 29  1  0  0  0  0
 24  2  1  6  0  0  0
 24 31  1  0  0  0  0
 25 26  1  0  0  0  0
 25 33  1  1  0  0  0
 27 28  1  6  0  0  0
 27 35  1  0  0  0  0
 29 30  1  0  0  0  0
 29 37  1  1  0  0  0
 31 32  1  1  0  0  0
 31 39  1  0  0  0  0
 33 34  1  0  0  0  0
 35 36  1  0  0  0  0
 35 41  1  6  0  0  0
 37 38  1  0  0  0  0
 39 40  1  6  0  0  0
 41 42  1  0  0  0  0
M  END
>  <CHROM.1>
-170.59154832,173.40611362,175.13011604,153.88311197,-165.03773525,-178.73041624
67.65249413,162.92938746,165.26483061,37.39385062,37.29117126,-12.80960042
-1.85958426,-0.25326574,-0.04754057

>  <Name>
3c44_lig

>  <RI>
224

>  <Rbt.Current_Directory>
/home/itssahil/PROJECTS/Mol_Feturizer/New_Systems/rnas/3c44

>  <Rbt.Executable>
rbdock ($Id: //depot/dev/client3/rdock/2013.1/src/exe/rbdock.cxx#4 $)

>  <Rbt.Library>
libRbt.so (2013.1, Build901 2013/11/27)

>  <Rbt.Parameter_File>
/export/apps/rDock/src/rDock_2013.1_src/data/scripts/dock_solv.prm

>  <Rbt.Receptor>
prm/pocket_docking_3.prm

>  <SCORE>
-23.0317

>  <SCORE.INTER>
-18.8522

>  <SCORE.INTER.CONST>
1

>  <SCORE.INTER.POLAR>
-1.66061

>  <SCORE.INTER.ROT>
9

>  <SCORE.INTER.SOLV>
25.8839

>  <SCORE.INTER.VDW>
-25.2607

>  <SCORE.INTER.norm>
-0.448862

>  <SCORE.INTRA>
-4.17953

>  <SCORE.INTRA.DIHEDRAL>
-7.64213

>  <SCORE.INTRA.DIHEDRAL.0>
14.8538

>  <SCORE.INTRA.POLAR>
0

>  <SCORE.INTRA.POLAR.0>
0

>  <SCORE.INTRA.REPUL>
0.0135817

>  <SCORE.INTRA.REPUL.0>
0

>  <SCORE.INTRA.SOLV>
-4.06814

>  <SCORE.INTRA.SOLV.lig_0>
-100.951

>  <SCORE.INTRA.VDW>
1.6077

>  <SCORE.INTRA.VDW.0>
-5.71388

>  <SCORE.INTRA.norm>
-0.0995126

>  <SCORE.RESTR>
0

>  <SCORE.RESTR.CAVITY>
0

>  <SCORE.RESTR.norm>
0

>  <SCORE.SYSTEM>
0

>  <SCORE.SYSTEM.CONST>
0

>  <SCORE.SYSTEM.DIHEDRAL>
0

>  <SCORE.SYSTEM.SOLV>
0

>  <SCORE.SYSTEM.norm>
0

>  <SCORE.heavy>
42

>  <SCORE.norm>
-0.548374

>  <RMSD>
0.962

$$$$
3c44_lig
 OpenBabel11021811463D
libRbt.so/2013.1/901 2013/11/27
 42 45  0  0  0  0  0  0  0  0999 V2000
   37.0053   33.8650  -12.5973 C   0  0  2  0  0  0  0  0  0  0  0  0
   36.1780   33.7823  -13.7680 O   0  0  0  0  0  0  0  0  0  0  0  0
   33.2058   36.2687  -15.2422 C   0  0  2  0  0  0  0  0  0  0  0  0
   32.0462   37.1071  -15.5832 N   0  0  0  0  0  0  0  0  0  0  0  0
   36.5250   37.7766  -12.6939 C   0  0  1  0  0  0  0  0  0  0  0  0
   38.3359   41.5476  -12.2245 C   0  0  1  0  0  0  0  0  0  0  0  0
   38.3949   33.3090  -12.9256 C   0  0  2  0  0  0  0  0  0  0  0  0
   38.9702   33.9925  -14.0931 N   0  0  0  0  0  0  0  0  0  0  0  0
   32.7633   34.8354  -14.9339 C   0  0  0  0  0  0  0  0  0  0  0  0
   37.2040   38.1214  -11.3676 C   0  0  2  0  0  0  0  0  0  0  0  0
   36.2546   38.6975  -10.4684 O   0  0  0  0  0  0  0  0  0  0  0  0
   37.5263   42.8429  -12.3447 C   0  0  2  0  0  0  0  0  0  0  0  0
   36.6090   42.7097  -13.4848 N   0  0  0  0  0  0  0  0  0  0  0  0
   38.3412   31.8047  -13.2036 C   0  0  1  0  0  0  0  0  0  0  0  0
   39.6739   31.3042  -13.3473 O   0  0  0  0  0  0  0  0  0  0  0  0
   34.0259   33.9884  -14.7425 C   0  0  2  0  0  0  0  0  0  0  0  0
   33.6406   32.6152  -14.3835 N   0  0  0  0  0  0  0  0  0  0  0  0
   38.1577   39.2152  -11.8438 C   0  0  2  0  0  0  0  0  0  0  0  0
   37.4409   40.4246  -12.1418 O   0  0  0  0  0  0  0  0  0  0  0  0
   38.4437   44.0490  -12.5849 C   0  0  1  0  0  0  0  0  0  0  0  0
   39.1906   44.3512  -11.4034 O   0  0  0  0  0  0  0  0  0  0  0  0
   37.6480   31.0870  -12.0440 C   0  0  2  0  0  0  0  0  0  0  0  0
   37.5016   29.6993  -12.3566 O   0  0  0  0  0  0  0  0  0  0  0  0
   34.9603   34.5399  -13.6584 C   0  0  2  0  0  0  0  0  0  0  0  0
   38.6679   38.5952  -13.1350 C   0  0  2  0  0  0  0  0  0  0  0  0
   37.6105   37.7507  -13.6392 O   0  0  0  0  0  0  0  0  0  0  0  0
   39.4222   43.7763  -13.7285 C   0  0  2  0  0  0  0  0  0  0  0  0
   38.6891   43.6934  -14.9540 O   0  0  0  0  0  0  0  0  0  0  0  0
   36.2713   31.7094  -11.8064 C   0  0  2  0  0  0  0  0  0  0  0  0
   36.4038   33.1166  -11.5244 O   0  0  0  0  0  0  0  0  0  0  0  0
   35.2476   36.0350  -13.7792 C   0  0  2  0  0  0  0  0  0  0  0  0
   35.8794   36.4970  -12.5741 O   0  0  0  0  0  0  0  0  0  0  0  0
   39.9308   37.7811  -12.8454 C   0  0  0  0  0  0  0  0  0  0  0  0
   40.3867   37.1781  -14.0586 O   0  0  0  0  0  0  0  0  0  0  0  0
   40.1548   42.4604  -13.4536 C   0  0  1  0  0  0  0  0  0  0  0  0
   39.1805   41.4048  -13.3777 O   0  0  0  0  0  0  0  0  0  0  0  0
   35.6382   30.9934  -10.6106 C   0  0  0  0  0  0  0  0  0  0  0  0
   36.3282   31.3761   -9.3702 O   0  0  0  0  0  0  0  0  0  0  0  0
   33.9562   36.8231  -14.0286 C   0  0  1  0  0  0  0  0  0  0  0  0
   34.2579   38.2061  -14.2271 O   0  0  0  0  0  0  0  0  0  0  0  0
   41.1716   42.1249  -14.5455 C   0  0  0  0  0  0  0  0  0  0  0  0
   41.7504   40.8010  -14.2772 N   0  0  0  0  0  0  0  0  0  0  0  0
  1  2  1  6  0  0  0
  1  7  1  0  0  0  0
  1 30  1  0  0  0  0
  3  4  1  1  0  0  0
  3  9  1  0  0  0  0
  3 39  1  0  0  0  0
  5 10  1  0  0  0  0
  5 26  1  0  0  0  0
  5 32  1  1  0  0  0
  6 12  1  0  0  0  0
  6 36  1  0  0  0  0
  6 19  1  6  0  0  0
  7  8  1  6  0  0  0
  7 14  1  0  0  0  0
  9 16  1  0  0  0  0
 10 11  1  1  0  0  0
 10 18  1  0  0  0  0
 12 13  1  6  0  0  0
 12 20  1  0  0  0  0
 14 15  1  1  0  0  0
 14 22  1  0  0  0  0
 16 17  1  1  0  0  0
 16 24  1  0  0  0  0
 18 19  1  6  0  0  0
 18 25  1  0  0  0  0
 20 21  1  1  0  0  0
 20 27  1  0  0  0  0
 22 23  1  6  0  0  0
 22 29  1  0  0  0  0
 24  2  1  6  0  0  0
 24 31  1  0  0  0  0
 25 26  1  0  0  0  0
 25 33  1  1  0  0  0
 27 28  1  6  0  0  0
 27 35  1  0  0  0  0
 29 30  1  0  0  0  0
 29 37  1  1  0  0  0
 31 32  1  1  0  0  0
 31 39  1  0  0  0  0
 33 34  1  0  0  0  0
 35 36  1  0  0  0  0
 35 41  1  6  0  0  0
 37 38  1  0  0  0  0
 39 40  1  6  0  0  0
 41 42  1  0  0  0  0
M  END
>  <CHROM.1>
-167.05121639,-177.60774437,-172.04324378,163.85249412,-161.93906049,178.74076517
71.12145742,163.81504189,-175.21183025,37.18636647,37.09002451,-13.06243778
-1.83582078,-0.23873001,-0.11297083

>  <Name>
3c44_lig

>  <RI>
0

>  <Rbt.Current_Directory>
/home/itssahil/PROJECTS/Mol_Feturizer/New_Systems/rnas/3c44

>  <Rbt.Executable>
rbdock ($Id: //depot/dev/client3/rdock/2013.1/src/exe/rbdock.cxx#4 $)

>  <Rbt.Library>
libRbt.so (2013.1, Build901 2013/11/27)

>  <Rbt.Parameter_File>
/export/apps/rDock/src/rDock_2013.1_src/data/scripts/dock_solv.prm

>  <Rbt.Receptor>
prm/pocket_docking_2.prm

>  <SCORE>
-20.7636

>  <SCORE.INTER>
-16.8384

>  <SCORE.INTER.CONST>
1

>  <SCORE.INTER.POLAR>
-1.75315

>  <SCORE.INTER.ROT>
9

>  <SCORE.INTER.SOLV>
20.5485

>  <SCORE.INTER.VDW>
-21.8313

>  <SCORE.INTER.norm>
-0.400915

>  <SCORE.INTRA>
-4.25009

>  <SCORE.INTRA.DIHEDRAL>
-8.90349

>  <SCORE.INTRA.DIHEDRAL.0>
14.8538

>  <SCORE.INTRA.POLAR>
0

>  <SCORE.INTRA.POLAR.0>
0

>  <SCORE.INTRA.REPUL>
0

>  <SCORE.INTRA.REPUL.0>
0

>  <SCORE.INTRA.SOLV>
-2.27737

>  <SCORE.INTRA.SOLV.lig_0>
-100.951

>  <SCORE.INTRA.VDW>
1.34034

>  <SCORE.INTRA.VDW.0>
-5.71388

>  <SCORE.INTRA.norm>
-0.101193

>  <SCORE.RESTR>
0.32494

>  <SCORE.RESTR.CAVITY>
0.32494

>  <SCORE.RESTR.norm>
0.00773667

>  <SCORE.SYSTEM>
0

>  <SCORE.SYSTEM.CONST>
0

>  <SCORE.SYSTEM.DIHEDRAL>
0

>  <SCORE.SYSTEM.SOLV>
0

>  <SCORE.SYSTEM.norm>
0

>  <SCORE.heavy>
42

>  <SCORE.norm>
-0.494371

>  <RMSD>
0.974

$$$$
3c44_lig
 OpenBabel11021811463D
libRbt.so/2013.1/901 2013/11/27
 42 45  0  0  0  0  0  0  0  0999 V2000
   37.2940   34.0322  -12.7956 C   0  0  2  0  0  0  0  0  0  0  0  0
   36.2878   33.8385  -13.8015 O   0  0  0  0  0  0  0  0  0  0  0  0
   33.1394   36.3193  -14.8612 C   0  0  2  0  0  0  0  0  0  0  0  0
   31.9368   37.1455  -15.0478 N   0  0  0  0  0  0  0  0  0  0  0  0
   36.6899   37.7777  -12.5966 C   0  0  1  0  0  0  0  0  0  0  0  0
   38.4390   41.5873  -12.1327 C   0  0  1  0  0  0  0  0  0  0  0  0
   38.6160   33.4342  -13.2880 C   0  0  2  0  0  0  0  0  0  0  0  0
   38.9879   33.9911  -14.5967 N   0  0  0  0  0  0  0  0  0  0  0  0
   32.7557   34.8644  -14.5761 C   0  0  0  0  0  0  0  0  0  0  0  0
   37.3516   38.1530  -11.2698 C   0  0  2  0  0  0  0  0  0  0  0  0
   36.3860   38.7304  -10.3888 O   0  0  0  0  0  0  0  0  0  0  0  0
   37.6117   42.8607  -12.3372 C   0  0  2  0  0  0  0  0  0  0  0  0
   36.7727   42.6794  -13.5298 N   0  0  0  0  0  0  0  0  0  0  0  0
   38.5302   31.9100  -13.3997 C   0  0  1  0  0  0  0  0  0  0  0  0
   39.8258   31.3863  -13.7072 O   0  0  0  0  0  0  0  0  0  0  0  0
   34.0460   34.0384  -14.5487 C   0  0  2  0  0  0  0  0  0  0  0  0
   33.7231   32.6426  -14.2161 N   0  0  0  0  0  0  0  0  0  0  0  0
   38.2947   39.2521  -11.7548 C   0  0  2  0  0  0  0  0  0  0  0  0
   37.5644   40.4466  -12.0789 O   0  0  0  0  0  0  0  0  0  0  0  0
   38.5170   44.0812  -12.5488 C   0  0  1  0  0  0  0  0  0  0  0  0
   39.1797   44.4285  -11.3301 O   0  0  0  0  0  0  0  0  0  0  0  0
   38.0411   31.3192  -12.0760 C   0  0  2  0  0  0  0  0  0  0  0  0
   37.8572   29.9082  -12.2185 O   0  0  0  0  0  0  0  0  0  0  0  0
   35.0735   34.5631  -13.5381 C   0  0  2  0  0  0  0  0  0  0  0  0
   38.8255   38.6185  -13.0310 C   0  0  2  0  0  0  0  0  0  0  0  0
   37.7846   37.7516  -13.5313 O   0  0  0  0  0  0  0  0  0  0  0  0
   39.5726   43.8033  -13.6203 C   0  0  2  0  0  0  0  0  0  0  0  0
   38.9219   43.6745  -14.8876 O   0  0  0  0  0  0  0  0  0  0  0  0
   36.7164   31.9740  -11.6816 C   0  0  2  0  0  0  0  0  0  0  0  0
   36.8815   33.4013  -11.5689 O   0  0  0  0  0  0  0  0  0  0  0  0
   35.3205   36.0682  -13.6187 C   0  0  2  0  0  0  0  0  0  0  0  0
   36.0606   36.4914  -12.4620 O   0  0  0  0  0  0  0  0  0  0  0  0
   40.0966   37.8266  -12.7167 C   0  0  0  0  0  0  0  0  0  0  0  0
   41.0964   38.7227  -12.2264 O   0  0  0  0  0  0  0  0  0  0  0  0
   40.3136   42.5114  -13.2659 C   0  0  1  0  0  0  0  0  0  0  0  0
   39.3589   41.4361  -13.2256 O   0  0  0  0  0  0  0  0  0  0  0  0
   36.2925   31.3881  -10.3324 C   0  0  0  0  0  0  0  0  0  0  0  0
   35.8669   29.9911  -10.5004 O   0  0  0  0  0  0  0  0  0  0  0  0
   33.9967   36.8372  -13.7036 C   0  0  1  0  0  0  0  0  0  0  0  0
   34.2523   38.2338  -13.8679 O   0  0  0  0  0  0  0  0  0  0  0  0
   41.4055   42.1730  -14.2817 C   0  0  0  0  0  0  0  0  0  0  0  0
   40.7937   41.9831  -15.6043 N   0  0  0  0  0  0  0  0  0  0  0  0
  1  2  1  6  0  0  0
  1  7  1  0  0  0  0
  1 30  1  0  0  0  0
  3  4  1  1  0  0  0
  3  9  1  0  0  0  0
  3 39  1  0  0  0  0
  5 10  1  0  0  0  0
  5 26  1  0  0  0  0
  5 32  1  1  0  0  0
  6 12  1  0  0  0  0
  6 36  1  0  0  0  0
  6 19  1  6  0  0  0
  7  8  1  6  0  0  0
  7 14  1  0  0  0  0
  9 16  1  0  0  0  0
 10 11  1  1  0  0  0
 10 18  1  0  0  0  0
 12 13  1  6  0  0  0
 12 20  1  0  0  0  0
 14 15  1  1  0  0  0
 14 22  1  0  0  0  0
 16 17  1  1  0  0  0
 16 24  1  0  0  0  0
 18 19  1  6  0  0  0
 18 25  1  0  0  0  0
 20 21  1  1  0  0  0
 20 27  1  0  0  0  0
 22 23  1  6  0  0  0
 22 29  1  0  0  0  0
 24  2  1  6  0  0  0
 24 31  1  0  0  0  0
 25 26  1  0  0  0  0
 25 33  1  1  0  0  0
 27 28  1  6  0  0  0
 27 35  1  0  0  0  0
 29 30  1  0  0  0  0
 29 37  1  1  0  0  0
 31 32  1  1  0  0  0
 31 39  1  0  0  0  0
 33 34  1  0  0  0  0
 35 36  1  0  0  0  0
 35 41  1  6  0  0  0
 37 38  1  0  0  0  0
 39 40  1  6  0  0  0
 41 42  1  0  0  0  0
M  END
>  <CHROM.1>
-169.89325973,175.81862669,-174.23273409,162.15424378,-169.67437841,-62.31509266
-71.11697051,162.65380814,-60.87115644,37.31809527,37.18526258,-12.99877039
-1.83417330,-0.19283980,-0.09106242

>  <Name>
3c44_lig

>  <RI>
0

>  <Rbt.Current_Directory>
/home/itssahil/PROJECTS/Mol_Feturizer/New_Systems/rnas/3c44

>  <Rbt.Executable>
rbdock ($Id: //depot/dev/client3/rdock/2013.1/src/exe/rbdock.cxx#4 $)

>  <Rbt.Library>
libRbt.so (2013.1, Build901 2013/11/27)

>  <Rbt.Parameter_File>
/export/apps/rDock/src/rDock_2013.1_src/data/scripts/dock_solv.prm

>  <Rbt.Receptor>
prm/pocket_docking_2.prm

>  <SCORE>
-25.0893

>  <SCORE.INTER>
-21.1892

>  <SCORE.INTER.CONST>
1

>  <SCORE.INTER.POLAR>
-1.75516

>  <SCORE.INTER.ROT>
9

>  <SCORE.INTER.SOLV>
19.0629

>  <SCORE.INTER.VDW>
-24.2299

>  <SCORE.INTER.norm>
-0.504504

>  <SCORE.INTRA>
-3.91761

>  <SCORE.INTRA.DIHEDRAL>
-9.93182

>  <SCORE.INTRA.DIHEDRAL.0>
14.8538

>  <SCORE.INTRA.POLAR>
0

>  <SCORE.INTRA.POLAR.0>
0

>  <SCORE.INTRA.REPUL>
0.0057469

>  <SCORE.INTRA.REPUL.0>
0

>  <SCORE.INTRA.SOLV>
-2.50226

>  <SCORE.INTRA.SOLV.lig_0>
-100.951

>  <SCORE.INTRA.VDW>
2.2707

>  <SCORE.INTRA.VDW.0>
-5.71388

>  <SCORE.INTRA.norm>
-0.0932763

>  <SCORE.RESTR>
0.0174679

>  <SCORE.RESTR.CAVITY>
0.0174679

>  <SCORE.RESTR.norm>
0.000415902

>  <SCORE.SYSTEM>
0

>  <SCORE.SYSTEM.CONST>
0

>  <SCORE.SYSTEM.DIHEDRAL>
0

>  <SCORE.SYSTEM.SOLV>
0

>  <SCORE.SYSTEM.norm>
0

>  <SCORE.heavy>
42

>  <SCORE.norm>
-0.597365

>  <RMSD>
0.974

$$$$
3c44_lig
 OpenBabel11021811463D
libRbt.so/2013.1/901 2013/11/27
 42 45  0  0  0  0  0  0  0  0999 V2000
   37.2934   34.0268  -12.8086 C   0  0  2  0  0  0  0  0  0  0  0  0
   36.2816   33.8298  -13.8082 O   0  0  0  0  0  0  0  0  0  0  0  0
   33.1509   36.3380  -14.8560 C   0  0  2  0  0  0  0  0  0  0  0  0
   31.9535   37.1725  -15.0392 N   0  0  0  0  0  0  0  0  0  0  0  0
   36.6930   37.7590  -12.5604 C   0  0  1  0  0  0  0  0  0  0  0  0
   38.4281   41.5633  -12.0965 C   0  0  1  0  0  0  0  0  0  0  0  0
   38.6155   33.4377  -13.3114 C   0  0  2  0  0  0  0  0  0  0  0  0
   38.9753   34.0003  -14.6210 N   0  0  0  0  0  0  0  0  0  0  0  0
   32.7581   34.8825  -14.5865 C   0  0  0  0  0  0  0  0  0  0  0  0
   37.3183   38.1344  -11.2161 C   0  0  2  0  0  0  0  0  0  0  0  0
   36.3282   38.7082  -10.3604 O   0  0  0  0  0  0  0  0  0  0  0  0
   37.6097   42.8349  -12.3433 C   0  0  2  0  0  0  0  0  0  0  0  0
   36.7783   42.6242  -13.5365 N   0  0  0  0  0  0  0  0  0  0  0  0
   38.5378   31.9133  -13.4267 C   0  0  1  0  0  0  0  0  0  0  0  0
   39.8343   31.3980  -13.7443 O   0  0  0  0  0  0  0  0  0  0  0  0
   34.0439   34.0492  -14.5621 C   0  0  2  0  0  0  0  0  0  0  0  0
   33.7121   32.6521  -14.2442 N   0  0  0  0  0  0  0  0  0  0  0  0
   38.2711   39.2365  -11.6747 C   0  0  2  0  0  0  0  0  0  0  0  0
   37.5466   40.4294  -12.0167 O   0  0  0  0  0  0  0  0  0  0  0  0
   38.5235   44.0438  -12.5829 C   0  0  1  0  0  0  0  0  0  0  0  0
   39.1793   44.4221  -11.3698 O   0  0  0  0  0  0  0  0  0  0  0  0
   38.0610   31.3162  -12.1014 C   0  0  2  0  0  0  0  0  0  0  0  0
   37.8843   29.9045  -12.2465 O   0  0  0  0  0  0  0  0  0  0  0  0
   35.0703   34.5586  -13.5425 C   0  0  2  0  0  0  0  0  0  0  0  0
   38.8372   38.6057  -12.9371 C   0  0  2  0  0  0  0  0  0  0  0  0
   37.8121   37.7368  -13.4658 O   0  0  0  0  0  0  0  0  0  0  0  0
   39.5853   43.7296  -13.6382 C   0  0  2  0  0  0  0  0  0  0  0  0
   38.9431   43.5683  -14.9061 O   0  0  0  0  0  0  0  0  0  0  0  0
   36.7352   31.9622  -11.6963 C   0  0  2  0  0  0  0  0  0  0  0  0
   36.8928   33.3902  -11.5808 O   0  0  0  0  0  0  0  0  0  0  0  0
   35.3258   36.0629  -13.6076 C   0  0  2  0  0  0  0  0  0  0  0  0
   36.0637   36.4709  -12.4441 O   0  0  0  0  0  0  0  0  0  0  0  0
   40.1015   37.8167  -12.5901 C   0  0  0  0  0  0  0  0  0  0  0  0
   41.0938   38.7182  -12.0946 O   0  0  0  0  0  0  0  0  0  0  0  0
   40.3162   42.4442  -13.2416 C   0  0  1  0  0  0  0  0  0  0  0  0
   39.3551   41.3758  -13.1777 O   0  0  0  0  0  0  0  0  0  0  0  0
   36.3237   31.3703  -10.3459 C   0  0  0  0  0  0  0  0  0  0  0  0
   35.9420   29.9600  -10.5085 O   0  0  0  0  0  0  0  0  0  0  0  0
   34.0065   36.8400  -13.6901 C   0  0  1  0  0  0  0  0  0  0  0  0
   34.2703   38.2367  -13.8400 O   0  0  0  0  0  0  0  0  0  0  0  0
   41.4135   42.0709  -14.2391 C   0  0  0  0  0  0  0  0  0  0  0  0
   40.8172   41.8946  -15.5706 N   0  0  0  0  0  0  0  0  0  0  0  0
  1  2  1  6  0  0  0
  1  7  1  0  0  0  0
  1 30  1  0  0  0  0
  3  4  1  1  0  0  0
  3  9  1  0  0  0  0
  3 39  1  0  0  0  0
  5 10  1  0  0  0  0
  5 26  1  0  0  0  0
  5 32  1  1  0  0  0
  6 12  1  0  0  0  0
  6 36  1  0  0  0  0
  6 19  1  6  0  0  0
  7  8  1  6  0  0  0
  7 14  1  0  0  0  0
  9 16  1  0  0  0  0
 10 11  1  1  0  0  0
 10 18  1  0  0  0  0
 12 13  1  6  0  0  0
 12 20  1  0  0  0  0
 14 15  1  1  0  0  0
 14 22  1  0  0  0  0
 16 17  1  1  0  0  0
 16 24  1  0  0  0  0
 18 19  1  6  0  0  0
 18 25  1  0  0  0  0
 20 21  1  1  0  0  0
 20 27  1  0  0  0  0
 22 23  1  6  0  0  0
 22 29  1  0  0  0  0
 24  2  1  6  0  0  0
 24 31  1  0  0  0  0
 25 26  1  0  0  0  0
 25 33  1  1  0  0  0
 27 28  1  6  0  0  0
 27 35  1  0  0  0  0
 29 30  1  0  0  0  0
 29 37  1  1  0  0  0
 31 32  1  1  0  0  0
 31 39  1  0  0  0  0
 33 34  1  0  0  0  0
 35 36  1  0  0  0  0
 35 41  1  6  0  0  0
 37 38  1  0  0  0  0
 39 40  1  6  0  0  0
 41 42  1  0  0  0  0
M  END
>  <CHROM.1>
-169.23783183,174.23927494,-175.18021281,164.37632820,-170.69389038,-63.32603187
-69.49546161,163.05243894,-58.82899076,37.32319290,37.16632089,-12.98574691
-1.83332752,-0.19642680,-0.08843185

>  <Name>
3c44_lig

>  <RI>
0

>  <Rbt.Current_Directory>
/home/itssahil/PROJECTS/Mol_Feturizer/New_Systems/rnas/3c44

>  <Rbt.Executable>
rbdock ($Id: //depot/dev/client3/rdock/2013.1/src/exe/rbdock.cxx#4 $)

>  <Rbt.Library>
libRbt.so (2013.1, Build901 2013/11/27)

>  <Rbt.Parameter_File>
/export/apps/rDock/src/rDock_2013.1_src/data/scripts/dock_solv.prm

>  <Rbt.Receptor>
prm/pocket_docking_2.prm

>  <SCORE>
-25.0787

>  <SCORE.INTER>
-21.2758

>  <SCORE.INTER.CONST>
1

>  <SCORE.INTER.POLAR>
-1.73634

>  <SCORE.INTER.ROT>
9

>  <SCORE.INTER.SOLV>
19.1222

>  <SCORE.INTER.VDW>
-24.3702

>  <SCORE.INTER.norm>
-0.506567

>  <SCORE.INTRA>
-3.81326

>  <SCORE.INTRA.DIHEDRAL>
-10.3783

>  <SCORE.INTRA.DIHEDRAL.0>
14.8538

>  <SCORE.INTRA.POLAR>
0

>  <SCORE.INTRA.POLAR.0>
0

>  <SCORE.INTRA.REPUL>
0.010049

>  <SCORE.INTRA.REPUL.0>
0

>  <SCORE.INTRA.SOLV>
-2.47431

>  <SCORE.INTRA.SOLV.lig_0>
-100.951

>  <SCORE.INTRA.VDW>
2.56283

>  <SCORE.INTRA.VDW.0>
-5.71388

>  <SCORE.INTRA.norm>
-0.0907919

>  <SCORE.RESTR>
0.0103642

>  <SCORE.RESTR.CAVITY>
0.0103642

>  <SCORE.RESTR.norm>
0.000246767

>  <SCORE.SYSTEM>
0

>  <SCORE.SYSTEM.CONST>
0

>  <SCORE.SYSTEM.DIHEDRAL>
0

>  <SCORE.SYSTEM.SOLV>
0

>  <SCORE.SYSTEM.norm>
0

>  <SCORE.heavy>
42

>  <SCORE.norm>
-0.597112

>  <RMSD>
0.975

$$$$
3c44_lig
 OpenBabel11021811463D
libRbt.so/2013.1/901 2013/11/27
 42 45  0  0  0  0  0  0  0  0999 V2000
   37.3967   34.0293  -12.8872 C   0  0  2  0  0  0  0  0  0  0  0  0
   36.3596   33.8500  -13.8640 O   0  0  0  0  0  0  0  0  0  0  0  0
   33.2328   36.3919  -14.8396 C   0  0  2  0  0  0  0  0  0  0  0  0
   32.0415   37.2407  -14.9946 N   0  0  0  0  0  0  0  0  0  0  0  0
   36.8313   37.7946  -12.6418 C   0  0  1  0  0  0  0  0  0  0  0  0
   38.5476   41.6005  -12.2914 C   0  0  1  0  0  0  0  0  0  0  0  0
   38.6823   33.3677  -13.3946 C   0  0  2  0  0  0  0  0  0  0  0  0
   39.0434   33.8767  -14.7256 N   0  0  0  0  0  0  0  0  0  0  0  0
   32.8293   34.9433  -14.5496 C   0  0  0  0  0  0  0  0  0  0  0  0
   37.4657   38.1838  -11.3057 C   0  0  2  0  0  0  0  0  0  0  0  0
   36.4788   38.7548  -10.4446 O   0  0  0  0  0  0  0  0  0  0  0  0
   37.7281   42.8949  -12.3222 C   0  0  2  0  0  0  0  0  0  0  0  0
   36.6992   42.7650  -13.3631 N   0  0  0  0  0  0  0  0  0  0  0  0
   38.5349   31.8457  -13.4647 C   0  0  1  0  0  0  0  0  0  0  0  0
   39.8015   31.2641  -13.7886 O   0  0  0  0  0  0  0  0  0  0  0  0
   34.1045   34.0936  -14.5560 C   0  0  2  0  0  0  0  0  0  0  0  0
   33.7640   32.7029  -14.2198 N   0  0  0  0  0  0  0  0  0  0  0  0
   38.4050   39.2908  -11.7801 C   0  0  2  0  0  0  0  0  0  0  0  0
   37.6673   40.4755  -12.1229 O   0  0  0  0  0  0  0  0  0  0  0  0
   38.6145   44.1038  -12.6492 C   0  0  1  0  0  0  0  0  0  0  0  0
   39.4778   44.4021  -11.5490 O   0  0  0  0  0  0  0  0  0  0  0  0
   38.0557   31.3078  -12.1151 C   0  0  2  0  0  0  0  0  0  0  0  0
   37.8140   29.9020  -12.2166 O   0  0  0  0  0  0  0  0  0  0  0  0
   35.1656   34.5960  -13.5690 C   0  0  2  0  0  0  0  0  0  0  0  0
   38.9647   38.6568  -13.0437 C   0  0  2  0  0  0  0  0  0  0  0  0
   37.9421   37.7760  -13.5574 O   0  0  0  0  0  0  0  0  0  0  0  0
   39.4712   43.8380  -13.8882 C   0  0  2  0  0  0  0  0  0  0  0  0
   38.6168   43.7593  -15.0327 O   0  0  0  0  0  0  0  0  0  0  0  0
   36.7673   32.0238  -11.7070 C   0  0  2  0  0  0  0  0  0  0  0  0
   36.9900   33.4459  -11.6352 O   0  0  0  0  0  0  0  0  0  0  0  0
   35.4383   36.0965  -13.6511 C   0  0  2  0  0  0  0  0  0  0  0  0
   36.2139   36.5021  -12.5115 O   0  0  0  0  0  0  0  0  0  0  0  0
   40.2388   37.8806  -12.7034 C   0  0  0  0  0  0  0  0  0  0  0  0
   40.7378   37.2583  -13.8895 O   0  0  0  0  0  0  0  0  0  0  0  0
   40.2300   42.5223  -13.6958 C   0  0  1  0  0  0  0  0  0  0  0  0
   39.2701   41.4645  -13.5256 O   0  0  0  0  0  0  0  0  0  0  0  0
   36.3540   31.4889  -10.3335 C   0  0  0  0  0  0  0  0  0  0  0  0
   35.8317   30.1207  -10.4612 O   0  0  0  0  0  0  0  0  0  0  0  0
   34.1273   36.8900  -13.7016 C   0  0  1  0  0  0  0  0  0  0  0  0
   34.4046   38.2823  -13.8679 O   0  0  0  0  0  0  0  0  0  0  0  0
   41.1303   42.1937  -14.8874 C   0  0  0  0  0  0  0  0  0  0  0  0
   41.8041   40.9103  -14.6451 N   0  0  0  0  0  0  0  0  0  0  0  0
  1  2  1  6  0  0  0
  1  7  1  0  0  0  0
  1 30  1  0  0  0  0
  3  4  1  1  0  0  0
  3  9  1  0  0  0  0
  3 39  1  0  0  0  0
  5 10  1  0  0  0  0
  5 26  1  0  0  0  0
  5 32  1  1  0  0  0
  6 12  1  0  0  0  0
  6 36  1  0  0  0  0
  6 19  1  6  0  0  0
  7  8  1  6  0  0  0
  7 14  1  0  0  0  0
  9 16  1  0  0  0  0
 10 11  1  1  0  0  0
 10 18  1  0  0  0  0
 12 13  1  6  0  0  0
 12 20  1  0  0  0  0
 14 15  1  1  0  0  0
 14 22  1  0  0  0  0
 16 17  1  1  0  0  0
 16 24  1  0  0  0  0
 18 19  1  6  0  0  0
 18 25  1  0  0  0  0
 20 21  1  1  0  0  0
 20 27  1  0  0  0  0
 22 23  1  6  0  0  0
 22 29  1  0  0  0  0
 24  2  1  6  0  0  0
 24 31  1  0  0  0  0
 25 26  1  0  0  0  0
 25 33  1  1  0  0  0
 27 28  1  6  0  0  0
 27 35  1  0  0  0  0
 29 30  1  0  0  0  0
 29 37  1  1  0  0  0
 31 32  1  1  0  0  0
 31 39  1  0  0  0  0
 33 34  1  0  0  0  0
 35 36  1  0  0  0  0
 35 41  1  6  0  0  0
 37 38  1  0  0  0  0
 39 40  1  6  0  0  0
 41 42  1  0  0  0  0
M  END
>  <CHROM.1>
-171.71284417,172.60597777,-166.57788673,167.60012229,-170.09105540,178.44490895
-72.86878488,164.39498590,-178.91153656,37.38231134,37.14579071,-13.09036957
-1.81845549,-0.11878935,-0.07942821

>  <Name>
3c44_lig

>  <RI>
0

>  <Rbt.Current_Directory>
/home/itssahil/PROJECTS/Mol_Feturizer/New_Systems/rnas/3c44

>  <Rbt.Executable>
rbdock ($Id: //depot/dev/client3/rdock/2013.1/src/exe/rbdock.cxx#4 $)

>  <Rbt.Library>
libRbt.so (2013.1, Build901 2013/11/27)

>  <Rbt.Parameter_File>
/export/apps/rDock/src/rDock_2013.1_src/data/scripts/dock_solv.prm

>  <Rbt.Receptor>
prm/pocket_docking_2.prm

>  <SCORE>
-24.5533

>  <SCORE.INTER>
-19.932

>  <SCORE.INTER.CONST>
1

>  <SCORE.INTER.POLAR>
-1.77038

>  <SCORE.INTER.ROT>
9

>  <SCORE.INTER.SOLV>
20.2871

>  <SCORE.INTER.VDW>
-23.7491

>  <SCORE.INTER.norm>
-0.474573

>  <SCORE.INTRA>
-4.67956

>  <SCORE.INTRA.DIHEDRAL>
-10.0427

>  <SCORE.INTRA.DIHEDRAL.0>
14.8538

>  <SCORE.INTRA.POLAR>
0

>  <SCORE.INTRA.POLAR.0>
0

>  <SCORE.INTRA.REPUL>
0.0180679

>  <SCORE.INTRA.REPUL.0>
0

>  <SCORE.INTRA.SOLV>
-3.51071

>  <SCORE.INTRA.SOLV.lig_0>
-100.951

>  <SCORE.INTRA.VDW>
2.00682

>  <SCORE.INTRA.VDW.0>
-5.71388

>  <SCORE.INTRA.norm>
-0.111418

>  <SCORE.RESTR>
0.0583305

>  <SCORE.RESTR.CAVITY>
0.0583305

>  <SCORE.RESTR.norm>
0.00138882

>  <SCORE.SYSTEM>
0

>  <SCORE.SYSTEM.CONST>
0

>  <SCORE.SYSTEM.DIHEDRAL>
0

>  <SCORE.SYSTEM.SOLV>
0

>  <SCORE.SYSTEM.norm>
0

>  <SCORE.heavy>
42

>  <SCORE.norm>
-0.584602

>  <RMSD>
0.979

$$$$
3c44_lig
 OpenBabel11021811463D
libRbt.so/2013.1/901 2013/11/27
 42 45  0  0  0  0  0  0  0  0999 V2000
   37.2599   34.0156  -12.8276 C   0  0  2  0  0  0  0  0  0  0  0  0
   36.2380   33.8221  -13.8175 O   0  0  0  0  0  0  0  0  0  0  0  0
   33.1401   36.3610  -14.8884 C   0  0  2  0  0  0  0  0  0  0  0  0
   31.9554   37.2122  -15.0779 N   0  0  0  0  0  0  0  0  0  0  0  0
   36.7306   37.7698  -12.6613 C   0  0  1  0  0  0  0  0  0  0  0  0
   38.5677   41.5320  -12.3261 C   0  0  1  0  0  0  0  0  0  0  0  0
   38.5649   33.3853  -13.3251 C   0  0  2  0  0  0  0  0  0  0  0  0
   38.9302   33.9122  -14.6480 N   0  0  0  0  0  0  0  0  0  0  0  0
   32.7252   34.9189  -14.5828 C   0  0  0  0  0  0  0  0  0  0  0  0
   37.4243   38.1372  -11.3488 C   0  0  2  0  0  0  0  0  0  0  0  0
   36.4867   38.7354  -10.4517 O   0  0  0  0  0  0  0  0  0  0  0  0
   37.7797   42.8458  -12.2994 C   0  0  2  0  0  0  0  0  0  0  0  0
   36.7247   42.7719  -13.3194 N   0  0  0  0  0  0  0  0  0  0  0  0
   38.4507   31.8611  -13.4084 C   0  0  1  0  0  0  0  0  0  0  0  0
   39.7329   31.3090  -13.7222 O   0  0  0  0  0  0  0  0  0  0  0  0
   33.9965   34.0640  -14.5531 C   0  0  2  0  0  0  0  0  0  0  0  0
   33.6441   32.6802  -14.2010 N   0  0  0  0  0  0  0  0  0  0  0  0
   38.3783   39.2170  -11.8558 C   0  0  2  0  0  0  0  0  0  0  0  0
   37.6642   40.4237  -12.1704 O   0  0  0  0  0  0  0  0  0  0  0  0
   38.6878   44.0426  -12.6112 C   0  0  1  0  0  0  0  0  0  0  0  0
   39.5828   44.2870  -11.5230 O   0  0  0  0  0  0  0  0  0  0  0  0
   37.9678   31.3028  -12.0686 C   0  0  2  0  0  0  0  0  0  0  0  0
   37.7571   29.8930  -12.1834 O   0  0  0  0  0  0  0  0  0  0  0  0
   35.0423   34.5776  -13.5556 C   0  0  2  0  0  0  0  0  0  0  0  0
   38.8727   38.5692  -13.1396 C   0  0  2  0  0  0  0  0  0  0  0  0
   37.8064   37.7202  -13.6166 O   0  0  0  0  0  0  0  0  0  0  0  0
   39.5096   43.7939  -13.8771 C   0  0  2  0  0  0  0  0  0  0  0  0
   38.6278   43.7701  -15.0032 O   0  0  0  0  0  0  0  0  0  0  0  0
   36.6599   31.9882  -11.6699 C   0  0  2  0  0  0  0  0  0  0  0  0
   36.8516   33.4141  -11.5848 O   0  0  0  0  0  0  0  0  0  0  0  0
   35.3230   36.0755  -13.6566 C   0  0  2  0  0  0  0  0  0  0  0  0
   36.0802   36.4959  -12.5100 O   0  0  0  0  0  0  0  0  0  0  0  0
   40.1346   37.7549  -12.8466 C   0  0  0  0  0  0  0  0  0  0  0  0
   40.6210   37.1912  -14.0667 O   0  0  0  0  0  0  0  0  0  0  0  0
   40.2400   42.4553  -13.7414 C   0  0  1  0  0  0  0  0  0  0  0  0
   39.2585   41.4161  -13.5802 O   0  0  0  0  0  0  0  0  0  0  0  0
   36.2425   31.4339  -10.3053 C   0  0  0  0  0  0  0  0  0  0  0  0
   35.9141   30.0057  -10.4199 O   0  0  0  0  0  0  0  0  0  0  0  0
   34.0166   36.8734  -13.7428 C   0  0  1  0  0  0  0  0  0  0  0  0
   34.3028   38.2618  -13.9262 O   0  0  0  0  0  0  0  0  0  0  0  0
   41.1048   42.1413  -14.9629 C   0  0  0  0  0  0  0  0  0  0  0  0
   41.8507   40.8985  -14.7210 N   0  0  0  0  0  0  0  0  0  0  0  0
  1  2  1  6  0  0  0
  1  7  1  0  0  0  0
  1 30  1  0  0  0  0
  3  4  1  1  0  0  0
  3  9  1  0  0  0  0
  3 39  1  0  0  0  0
  5 10  1  0  0  0  0
  5 26  1  0  0  0  0
  5 32  1  1  0  0  0
  6 12  1  0  0  0  0
  6 36  1  0  0  0  0
  6 19  1  6  0  0  0
  7  8  1  6  0  0  0
  7 14  1  0  0  0  0
  9 16  1  0  0  0  0
 10 11  1  1  0  0  0
 10 18  1  0  0  0  0
 12 13  1  6  0  0  0
 12 20  1  0  0  0  0
 14 15  1  1  0  0  0
 14 22  1  0  0  0  0
 16 17  1  1  0  0  0
 16 24  1  0  0  0  0
 18 19  1  6  0  0  0
 18 25  1  0  0  0  0
 20 21  1  1  0  0  0
 20 27  1  0  0  0  0
 22 23  1  6  0  0  0
 22 29  1  0  0  0  0
 24  2  1  6  0  0  0
 24 31  1  0  0  0  0
 25 26  1  0  0  0  0
 25 33  1  1  0  0  0
 27 28  1  6  0  0  0
 27 35  1  0  0  0  0
 29 30  1  0  0  0  0
 29 37  1  1  0  0  0
 31 32  1  1  0  0  0
 31 39  1  0  0  0  0
 33 34  1  0  0  0  0
 35 36  1  0  0  0  0
 35 41  1  6  0  0  0
 37 38  1  0  0  0  0
 39 40  1  6  0  0  0
 41 42  1  0  0  0  0
M  END
>  <CHROM.1>
-169.63424276,176.50729641,-165.51744796,165.69334823,-170.26138124,-177.83489417
-65.66709288,163.04268835,175.78316726,37.32507422,37.11115980,-13.10014013
-1.83241307,-0.13023460,-0.09055539

>  <Name>
3c44_lig

>  <RI>
0

>  <Rbt.Current_Directory>
/home/itssahil/PROJECTS/Mol_Feturizer/New_Systems/rnas/3c44

>  <Rbt.Executable>
rbdock ($Id: //depot/dev/client3/rdock/2013.1/src/exe/rbdock.cxx#4 $)

>  <Rbt.Library>
libRbt.so (2013.1, Build901 2013/11/27)

>  <Rbt.Parameter_File>
/export/apps/rDock/src/rDock_2013.1_src/data/scripts/dock_solv.prm

>  <Rbt.Receptor>
prm/pocket_docking_2.prm

>  <SCORE>
-24.3939

>  <SCORE.INTER>
-19.8395

>  <SCORE.INTER.CONST>
1

>  <SCORE.INTER.POLAR>
-1.76311

>  <SCORE.INTER.ROT>
9

>  <SCORE.INTER.SOLV>
20.2029

>  <SCORE.INTER.VDW>
-23.6836

>  <SCORE.INTER.norm>
-0.47237

>  <SCORE.INTRA>
-4.60407

>  <SCORE.INTRA.DIHEDRAL>
-9.93632

>  <SCORE.INTRA.DIHEDRAL.0>
14.8538

>  <SCORE.INTRA.POLAR>
0

>  <SCORE.INTRA.POLAR.0>
0

>  <SCORE.INTRA.REPUL>
0.00538332

>  <SCORE.INTRA.REPUL.0>
0

>  <SCORE.INTRA.SOLV>
-3.52403

>  <SCORE.INTRA.SOLV.lig_0>
-100.951

>  <SCORE.INTRA.VDW>
2.09919

>  <SCORE.INTRA.VDW.0>
-5.71388

>  <SCORE.INTRA.norm>
-0.109621

>  <SCORE.RESTR>
0.0496541

>  <SCORE.RESTR.CAVITY>
0.0496541

>  <SCORE.RESTR.norm>
0.00118224

>  <SCORE.SYSTEM>
0

>  <SCORE.SYSTEM.CONST>
0

>  <SCORE.SYSTEM.DIHEDRAL>
0

>  <SCORE.SYSTEM.SOLV>
0

>  <SCORE.SYSTEM.norm>
0

>  <SCORE.heavy>
42

>  <SCORE.norm>
-0.580808

>  <RMSD>
0.987

$$$$
3c44_lig
 OpenBabel11021811463D
libRbt.so/2013.1/901 2013/11/27
 42 45  0  0  0  0  0  0  0  0999 V2000
   37.2169   34.0043  -12.7938 C   0  0  2  0  0  0  0  0  0  0  0  0
   36.2624   33.8667  -13.8577 O   0  0  0  0  0  0  0  0  0  0  0  0
   33.1637   36.3768  -14.9922 C   0  0  2  0  0  0  0  0  0  0  0  0
   31.9723   37.2119  -15.2090 N   0  0  0  0  0  0  0  0  0  0  0  0
   36.6829   37.7693  -12.6109 C   0  0  1  0  0  0  0  0  0  0  0  0
   38.5745   41.4829  -12.2341 C   0  0  1  0  0  0  0  0  0  0  0  0
   38.5595   33.4212  -13.2470 C   0  0  2  0  0  0  0  0  0  0  0  0
   39.0002   34.0381  -14.5064 N   0  0  0  0  0  0  0  0  0  0  0  0
   32.7632   34.9211  -14.7364 C   0  0  0  0  0  0  0  0  0  0  0  0
   37.3274   38.1155  -11.2679 C   0  0  2  0  0  0  0  0  0  0  0  0
   36.3635   38.7236  -10.4060 O   0  0  0  0  0  0  0  0  0  0  0  0
   37.8150   42.8102  -12.3300 C   0  0  2  0  0  0  0  0  0  0  0  0
   36.8145   42.6931  -13.3998 N   0  0  0  0  0  0  0  0  0  0  0  0
   38.4722   31.9049  -13.4370 C   0  0  1  0  0  0  0  0  0  0  0  0
   39.7793   31.3874  -13.7035 O   0  0  0  0  0  0  0  0  0  0  0  0
   34.0476   34.0875  -14.6759 C   0  0  2  0  0  0  0  0  0  0  0  0
   33.7065   32.6900  -14.3699 N   0  0  0  0  0  0  0  0  0  0  0  0
   38.3199   39.1821  -11.7265 C   0  0  2  0  0  0  0  0  0  0  0  0
   37.6401   40.4031  -12.0612 O   0  0  0  0  0  0  0  0  0  0  0  0
   38.7641   43.9686  -12.6636 C   0  0  1  0  0  0  0  0  0  0  0  0
   39.6049   44.2630  -11.5450 O   0  0  0  0  0  0  0  0  0  0  0  0
   37.9134   31.2543  -12.1702 C   0  0  2  0  0  0  0  0  0  0  0  0
   37.7302   29.8532  -12.3904 O   0  0  0  0  0  0  0  0  0  0  0  0
   35.0440   34.5952  -13.6261 C   0  0  2  0  0  0  0  0  0  0  0  0
   38.8563   38.5348  -12.9936 C   0  0  2  0  0  0  0  0  0  0  0  0
   37.7966   37.7077  -13.5210 O   0  0  0  0  0  0  0  0  0  0  0  0
   39.6467   43.6273  -13.8654 C   0  0  2  0  0  0  0  0  0  0  0  0
   38.8260   43.5504  -15.0344 O   0  0  0  0  0  0  0  0  0  0  0  0
   36.5734   31.8988  -11.8121 C   0  0  2  0  0  0  0  0  0  0  0  0
   36.7393   33.3178  -11.6217 O   0  0  0  0  0  0  0  0  0  0  0  0
   35.3014   36.0996  -13.6815 C   0  0  2  0  0  0  0  0  0  0  0  0
   36.0052   36.5058  -12.4965 O   0  0  0  0  0  0  0  0  0  0  0  0
   40.0910   37.6968  -12.6546 C   0  0  0  0  0  0  0  0  0  0  0  0
   41.0766   38.5388  -12.0526 O   0  0  0  0  0  0  0  0  0  0  0  0
   40.3396   42.2864  -13.6094 C   0  0  1  0  0  0  0  0  0  0  0  0
   39.3286   41.2773  -13.4394 O   0  0  0  0  0  0  0  0  0  0  0  0
   36.0784   31.2514  -10.5162 C   0  0  0  0  0  0  0  0  0  0  0  0
   36.8574   31.7499   -9.3736 O   0  0  0  0  0  0  0  0  0  0  0  0
   33.9852   36.8770  -13.8012 C   0  0  1  0  0  0  0  0  0  0  0  0
   34.2534   38.2740  -13.9413 O   0  0  0  0  0  0  0  0  0  0  0  0
   41.2613   41.8819  -14.7606 C   0  0  0  0  0  0  0  0  0  0  0  0
   42.3168   42.8930  -14.9133 N   0  0  0  0  0  0  0  0  0  0  0  0
  1  2  1  6  0  0  0
  1  7  1  0  0  0  0
  1 30  1  0  0  0  0
  3  4  1  1  0  0  0
  3  9  1  0  0  0  0
  3 39  1  0  0  0  0
  5 10  1  0  0  0  0
  5 26  1  0  0  0  0
  5 32  1  1  0  0  0
  6 12  1  0  0  0  0
  6 36  1  0  0  0  0
  6 19  1  6  0  0  0
  7  8  1  6  0  0  0
  7 14  1  0  0  0  0
  9 16  1  0  0  0  0
 10 11  1  1  0  0  0
 10 18  1  0  0  0  0
 12 13  1  6  0  0  0
 12 20  1  0  0  0  0
 14 15  1  1  0  0  0
 14 22  1  0  0  0  0
 16 17  1  1  0  0  0
 16 24  1  0  0  0  0
 18 19  1  6  0  0  0
 18 25  1  0  0  0  0
 20 21  1  1  0  0  0
 20 27  1  0  0  0  0
 22 23  1  6  0  0  0
 22 29  1  0  0  0  0
 24  2  1  6  0  0  0
 24 31  1  0  0  0  0
 25 26  1  0  0  0  0
 25 33  1  1  0  0  0
 27 28  1  6  0  0  0
 27 35  1  0  0  0  0
 29 30  1  0  0  0  0
 29 37  1  1  0  0  0
 31 32  1  1  0  0  0
 31 39  1  0  0  0  0
 33 34  1  0  0  0  0
 35 36  1  0  0  0  0
 35 41  1  6  0  0  0
 37 38  1  0  0  0  0
 39 40  1  6  0  0  0
 41 42  1  0  0  0  0
M  END
>  <CHROM.1>
-169.42338847,177.14396467,-169.54057383,168.47586151,-167.52327331,-58.36183724
74.21867002,160.66572527,61.31512425,37.37696177,37.20671062,-13.02529414
-1.86552507,-0.22451087,-0.11414149

>  <Name>
3c44_lig

>  <RI>
224

>  <Rbt.Current_Directory>
/home/itssahil/PROJECTS/Mol_Feturizer/New_Systems/rnas/3c44

>  <Rbt.Executable>
rbdock ($Id: //depot/dev/client3/rdock/2013.1/src/exe/rbdock.cxx#4 $)

>  <Rbt.Library>
libRbt.so (2013.1, Build901 2013/11/27)

>  <Rbt.Parameter_File>
/export/apps/rDock/src/rDock_2013.1_src/data/scripts/dock_solv.prm

>  <Rbt.Receptor>
prm/pocket_docking_3.prm

>  <SCORE>
-24.8481

>  <SCORE.INTER>
-20.0299

>  <SCORE.INTER.CONST>
1

>  <SCORE.INTER.POLAR>
-1.7089

>  <SCORE.INTER.ROT>
9

>  <SCORE.INTER.SOLV>
21.3035

>  <SCORE.INTER.VDW>
-24.3581

>  <SCORE.INTER.norm>
-0.476902

>  <SCORE.INTRA>
-4.82665

>  <SCORE.INTRA.DIHEDRAL>
-9.53337

>  <SCORE.INTRA.DIHEDRAL.0>
14.8538

>  <SCORE.INTRA.POLAR>
0

>  <SCORE.INTRA.POLAR.0>
0

>  <SCORE.INTRA.REPUL>
0

>  <SCORE.INTRA.REPUL.0>
0

>  <SCORE.INTRA.SOLV>
-3.90227

>  <SCORE.INTRA.SOLV.lig_0>
-100.951

>  <SCORE.INTRA.VDW>
1.89117

>  <SCORE.INTRA.VDW.0>
-5.71388

>  <SCORE.INTRA.norm>
-0.11492

>  <SCORE.RESTR>
0.00838162

>  <SCORE.RESTR.CAVITY>
0.00838162

>  <SCORE.RESTR.norm>
0.000199562

>  <SCORE.SYSTEM>
0

>  <SCORE.SYSTEM.CONST>
0

>  <SCORE.SYSTEM.DIHEDRAL>
0

>  <SCORE.SYSTEM.SOLV>
0

>  <SCORE.SYSTEM.norm>
0

>  <SCORE.heavy>
42

>  <SCORE.norm>
-0.591622

>  <RMSD>
0.997

$$$$
3c44_lig
 OpenBabel11021811463D
libRbt.so/2013.1/901 2013/11/27
 42 45  0  0  0  0  0  0  0  0999 V2000
   37.1958   33.9672  -12.7449 C   0  0  2  0  0  0  0  0  0  0  0  0
   36.2542   33.8497  -13.8226 O   0  0  0  0  0  0  0  0  0  0  0  0
   33.1756   36.3736  -14.9810 C   0  0  2  0  0  0  0  0  0  0  0  0
   31.9902   37.2150  -15.2063 N   0  0  0  0  0  0  0  0  0  0  0  0
   36.6787   37.7645  -12.5867 C   0  0  1  0  0  0  0  0  0  0  0  0
   38.5445   41.4915  -12.1964 C   0  0  1  0  0  0  0  0  0  0  0  0
   38.5443   33.3942  -13.1934 C   0  0  2  0  0  0  0  0  0  0  0  0
   38.9993   34.0361  -14.4352 N   0  0  0  0  0  0  0  0  0  0  0  0
   32.7650   34.9216  -14.7197 C   0  0  0  0  0  0  0  0  0  0  0  0
   37.3140   38.1156  -11.2406 C   0  0  2  0  0  0  0  0  0  0  0  0
   36.3418   38.7181  -10.3842 O   0  0  0  0  0  0  0  0  0  0  0  0
   37.7750   42.8107  -12.3208 C   0  0  2  0  0  0  0  0  0  0  0  0
   36.7990   42.6746  -13.4107 N   0  0  0  0  0  0  0  0  0  0  0  0
   38.4609   31.8818  -13.4141 C   0  0  1  0  0  0  0  0  0  0  0  0
   39.7716   31.3707  -13.6752 O   0  0  0  0  0  0  0  0  0  0  0  0
   34.0439   34.0804  -14.6503 C   0  0  2  0  0  0  0  0  0  0  0  0
   33.6929   32.6865  -14.3390 N   0  0  0  0  0  0  0  0  0  0  0  0
   38.3022   39.1880  -11.6947 C   0  0  2  0  0  0  0  0  0  0  0  0
   37.6165   40.4046  -12.0338 O   0  0  0  0  0  0  0  0  0  0  0  0
   38.7205   43.9749  -12.6445 C   0  0  1  0  0  0  0  0  0  0  0  0
   39.5341   44.2872  -11.5107 O   0  0  0  0  0  0  0  0  0  0  0  0
   37.8878   31.2060  -12.1671 C   0  0  2  0  0  0  0  0  0  0  0  0
   37.7088   29.8094  -12.4168 O   0  0  0  0  0  0  0  0  0  0  0  0
   35.0395   34.5869  -13.5992 C   0  0  2  0  0  0  0  0  0  0  0  0
   38.8493   38.5434  -12.9586 C   0  0  2  0  0  0  0  0  0  0  0  0
   37.7975   37.7093  -13.4910 O   0  0  0  0  0  0  0  0  0  0  0  0
   39.6319   43.6312  -13.8238 C   0  0  2  0  0  0  0  0  0  0  0  0
   38.8373   43.5361  -15.0095 O   0  0  0  0  0  0  0  0  0  0  0  0
   36.5429   31.8423  -11.8124 C   0  0  2  0  0  0  0  0  0  0  0  0
   36.7050   33.2574  -11.5924 O   0  0  0  0  0  0  0  0  0  0  0  0
   35.3065   36.0894  -13.6609 C   0  0  2  0  0  0  0  0  0  0  0  0
   36.0084   36.4968  -12.4751 O   0  0  0  0  0  0  0  0  0  0  0  0
   40.0873   37.7133  -12.6126 C   0  0  0  0  0  0  0  0  0  0  0  0
   41.1215   38.5859  -12.1522 O   0  0  0  0  0  0  0  0  0  0  0  0
   40.3314   42.2992  -13.5406 C   0  0  1  0  0  0  0  0  0  0  0  0
   39.3263   41.2822  -13.3832 O   0  0  0  0  0  0  0  0  0  0  0  0
   36.0332   31.1691  -10.5355 C   0  0  0  0  0  0  0  0  0  0  0  0
   36.8616   31.5694   -9.3890 O   0  0  0  0  0  0  0  0  0  0  0  0
   33.9957   36.8743  -13.7893 C   0  0  1  0  0  0  0  0  0  0  0  0
   34.2731   38.2689  -13.9350 O   0  0  0  0  0  0  0  0  0  0  0  0
   41.2815   41.8931  -14.6680 C   0  0  0  0  0  0  0  0  0  0  0  0
   42.3465   42.8984  -14.7888 N   0  0  0  0  0  0  0  0  0  0  0  0
  1  2  1  6  0  0  0
  1  7  1  0  0  0  0
  1 30  1  0  0  0  0
  3  4  1  1  0  0  0
  3  9  1  0  0  0  0
  3 39  1  0  0  0  0
  5 10  1  0  0  0  0
  5 26  1  0  0  0  0
  5 32  1  1  0  0  0
  6 12  1  0  0  0  0
  6 36  1  0  0  0  0
  6 19  1  6  0  0  0
  7  8  1  6  0  0  0
  7 14  1  0  0  0  0
  9 16  1  0  0  0  0
 10 11  1  1  0  0  0
 10 18  1  0  0  0  0
 12 13  1  6  0  0  0
 12 20  1  0  0  0  0
 14 15  1  1  0  0  0
 14 22  1  0  0  0  0
 16 17  1  1  0  0  0
 16 24  1  0  0  0  0
 18 19  1  6  0  0  0
 18 25  1  0  0  0  0
 20 21  1  1  0  0  0
 20 27  1  0  0  0  0
 22 23  1  6  0  0  0
 22 29  1  0  0  0  0
 24  2  1  6  0  0  0
 24 31  1  0  0  0  0
 25 26  1  0  0  0  0
 25 33  1  1  0  0  0
 27 28  1  6  0  0  0
 27 35  1  0  0  0  0
 29 30  1  0  0  0  0
 29 37  1  1  0  0  0
 31 32  1  1  0  0  0
 31 39  1  0  0  0  0
 33 34  1  0  0  0  0
 35 36  1  0  0  0  0
 35 41  1  6  0  0  0
 37 38  1  0  0  0  0
 39 40  1  6  0  0  0
 41 42  1  0  0  0  0
M  END
>  <CHROM.1>
-168.64719310,176.78214389,-170.48261730,168.20851922,-166.47605538,-65.09624649
70.04656967,161.50125824,62.47773930,37.36818260,37.19380681,-13.00112199
-1.86318646,-0.22316838,-0.11146085

>  <Name>
3c44_lig

>  <RI>
224

>  <Rbt.Current_Directory>
/home/itssahil/PROJECTS/Mol_Feturizer/New_Systems/rnas/3c44

>  <Rbt.Executable>
rbdock ($Id: //depot/dev/client3/rdock/2013.1/src/exe/rbdock.cxx#4 $)

>  <Rbt.Library>
libRbt.so (2013.1, Build901 2013/11/27)

>  <Rbt.Parameter_File>
/export/apps/rDock/src/rDock_2013.1_src/data/scripts/dock_solv.prm

>  <Rbt.Receptor>
prm/pocket_docking_3.prm

>  <SCORE>
-24.8396

>  <SCORE.INTER>
-19.8177

>  <SCORE.INTER.CONST>
1

>  <SCORE.INTER.POLAR>
-1.70929

>  <SCORE.INTER.ROT>
9

>  <SCORE.INTER.SOLV>
21.5143

>  <SCORE.INTER.VDW>
-24.2856

>  <SCORE.INTER.norm>
-0.471851

>  <SCORE.INTRA>
-5.02656

>  <SCORE.INTRA.DIHEDRAL>
-9.75223

>  <SCORE.INTRA.DIHEDRAL.0>
14.8538

>  <SCORE.INTRA.POLAR>
0

>  <SCORE.INTRA.POLAR.0>
0

>  <SCORE.INTRA.REPUL>
9.39593e-05

>  <SCORE.INTRA.REPUL.0>
0

>  <SCORE.INTRA.SOLV>
-3.85984

>  <SCORE.INTRA.SOLV.lig_0>
-100.951

>  <SCORE.INTRA.VDW>
1.779

>  <SCORE.INTRA.VDW.0>
-5.71388

>  <SCORE.INTRA.norm>
-0.11968

>  <SCORE.RESTR>
0.00467558

>  <SCORE.RESTR.CAVITY>
0.00467558

>  <SCORE.RESTR.norm>
0.000111323

>  <SCORE.SYSTEM>
0

>  <SCORE.SYSTEM.CONST>
0

>  <SCORE.SYSTEM.DIHEDRAL>
0

>  <SCORE.SYSTEM.SOLV>
0

>  <SCORE.SYSTEM.norm>
0

>  <SCORE.heavy>
42

>  <SCORE.norm>
-0.591419

>  <RMSD>
0.998

$$$$
3c44_lig
 OpenBabel11021811463D
libRbt.so/2013.1/901 2013/11/27
 42 45  0  0  0  0  0  0  0  0999 V2000
   37.3777   34.1092  -12.8332 C   0  0  2  0  0  0  0  0  0  0  0  0
   36.3210   33.8420  -13.7679 O   0  0  0  0  0  0  0  0  0  0  0  0
   33.1891   36.3615  -14.7846 C   0  0  2  0  0  0  0  0  0  0  0  0
   31.9934   37.2010  -14.9556 N   0  0  0  0  0  0  0  0  0  0  0  0
   36.7776   37.7658  -12.5416 C   0  0  1  0  0  0  0  0  0  0  0  0
   38.5685   41.5446  -12.1633 C   0  0  1  0  0  0  0  0  0  0  0  0
   38.6771   33.4869  -13.3548 C   0  0  2  0  0  0  0  0  0  0  0  0
   38.9731   33.9561  -14.7162 N   0  0  0  0  0  0  0  0  0  0  0  0
   32.7932   34.9086  -14.5064 C   0  0  0  0  0  0  0  0  0  0  0  0
   37.4095   38.1497  -11.2028 C   0  0  2  0  0  0  0  0  0  0  0  0
   36.4282   38.7473  -10.3533 O   0  0  0  0  0  0  0  0  0  0  0  0
   37.7662   42.8398  -12.3261 C   0  0  2  0  0  0  0  0  0  0  0  0
   36.8398   42.6700  -13.4540 N   0  0  0  0  0  0  0  0  0  0  0  0
   38.5997   31.9581  -13.3590 C   0  0  1  0  0  0  0  0  0  0  0  0
   39.8818   31.4223  -13.7001 O   0  0  0  0  0  0  0  0  0  0  0  0
   34.0753   34.0695  -14.4952 C   0  0  2  0  0  0  0  0  0  0  0  0
   33.7411   32.6748  -14.1696 N   0  0  0  0  0  0  0  0  0  0  0  0
   38.3763   39.2332  -11.6763 C   0  0  2  0  0  0  0  0  0  0  0  0
   37.6671   40.4313  -12.0324 O   0  0  0  0  0  0  0  0  0  0  0  0
   38.6893   44.0301  -12.6177 C   0  0  1  0  0  0  0  0  0  0  0  0
   39.4466   44.3713  -11.4537 O   0  0  0  0  0  0  0  0  0  0  0  0
   38.1876   31.4554  -11.9741 C   0  0  2  0  0  0  0  0  0  0  0  0
   38.0096   30.0370  -12.0112 O   0  0  0  0  0  0  0  0  0  0  0  0
   35.1163   34.5769  -13.4895 C   0  0  2  0  0  0  0  0  0  0  0  0
   38.9324   38.5793  -12.9313 C   0  0  2  0  0  0  0  0  0  0  0  0
   37.8952   37.7174  -13.4479 O   0  0  0  0  0  0  0  0  0  0  0  0
   39.6577   43.7084  -13.7572 C   0  0  2  0  0  0  0  0  0  0  0  0
   38.9153   43.5846  -14.9735 O   0  0  0  0  0  0  0  0  0  0  0  0
   36.8798   32.1278  -11.5537 C   0  0  2  0  0  0  0  0  0  0  0  0
   37.0373   33.5604  -11.5463 O   0  0  0  0  0  0  0  0  0  0  0  0
   35.3777   36.0799  -13.5618 C   0  0  2  0  0  0  0  0  0  0  0  0
   36.1315   36.4877  -12.4084 O   0  0  0  0  0  0  0  0  0  0  0  0
   40.1866   37.7780  -12.5758 C   0  0  0  0  0  0  0  0  0  0  0  0
   41.1926   38.6728  -12.0962 O   0  0  0  0  0  0  0  0  0  0  0  0
   40.3841   42.3990  -13.4384 C   0  0  1  0  0  0  0  0  0  0  0  0
   39.4038   41.3533  -13.3163 O   0  0  0  0  0  0  0  0  0  0  0  0
   36.5342   31.6321  -10.1472 C   0  0  0  0  0  0  0  0  0  0  0  0
   36.1241   30.2213  -10.1961 O   0  0  0  0  0  0  0  0  0  0  0  0
   34.0611   36.8627  -13.6305 C   0  0  1  0  0  0  0  0  0  0  0  0
   34.3293   38.2579  -13.7873 O   0  0  0  0  0  0  0  0  0  0  0  0
   41.3908   42.0163  -14.5241 C   0  0  0  0  0  0  0  0  0  0  0  0
   40.6669   41.6756  -15.7567 N   0  0  0  0  0  0  0  0  0  0  0  0
  1  2  1  6  0  0  0
  1  7  1  0  0  0  0
  1 30  1  0  0  0  0
  3  4  1  1  0  0  0
  3  9  1  0  0  0  0
  3 39  1  0  0  0  0
  5 10  1  0  0  0  0
  5 26  1  0  0  0  0
  5 32  1  1  0  0  0
  6 12  1  0  0  0  0
  6 36  1  0  0  0  0
  6 19  1  6  0  0  0
  7  8  1  6  0  0  0
  7 14  1  0  0  0  0
  9 16  1  0  0  0  0
 10 11  1  1  0  0  0
 10 18  1  0  0  0  0
 12 13  1  6  0  0  0
 12 20  1  0  0  0  0
 14 15  1  1  0  0  0
 14 22  1  0  0  0  0
 16 17  1  1  0  0  0
 16 24  1  0  0  0  0
 18 19  1  6  0  0  0
 18 25  1  0  0  0  0
 20 21  1  1  0  0  0
 20 27  1  0  0  0  0
 22 23  1  6  0  0  0
 22 29  1  0  0  0  0
 24  2  1  6  0  0  0
 24 31  1  0  0  0  0
 25 26  1  0  0  0  0
 25 33  1  1  0  0  0
 27 28  1  6  0  0  0
 27 35  1  0  0  0  0
 29 30  1  0  0  0  0
 29 37  1  1  0  0  0
 31 32  1  1  0  0  0
 31 39  1  0  0  0  0
 33 34  1  0  0  0  0
 35 36  1  0  0  0  0
 35 41  1  6  0  0  0
 37 38  1  0  0  0  0
 39 40  1  6  0  0  0
 41 42  1  0  0  0  0
M  END
>  <CHROM.1>
-169.83024998,173.75174690,-171.24232776,165.95665384,-174.80310202,-63.48599013
-70.64839709,162.37964450,-67.48543493,37.40284199,37.19242208,-12.96943192
-1.83472565,-0.19870387,-0.10752101

>  <Name>
3c44_lig

>  <RI>
224

>  <Rbt.Current_Directory>
/home/itssahil/PROJECTS/Mol_Feturizer/New_Systems/rnas/3c44

>  <Rbt.Executable>
rbdock ($Id: //depot/dev/client3/rdock/2013.1/src/exe/rbdock.cxx#4 $)

>  <Rbt.Library>
libRbt.so (2013.1, Build901 2013/11/27)

>  <Rbt.Parameter_File>
/export/apps/rDock/src/rDock_2013.1_src/data/scripts/dock_solv.prm

>  <Rbt.Receptor>
prm/pocket_docking_3.prm

>  <SCORE>
-25.6651

>  <SCORE.INTER>
-21.6915

>  <SCORE.INTER.CONST>
1

>  <SCORE.INTER.POLAR>
-1.72836

>  <SCORE.INTER.ROT>
9

>  <SCORE.INTER.SOLV>
19.7001

>  <SCORE.INTER.VDW>
-24.8665

>  <SCORE.INTER.norm>
-0.516465

>  <SCORE.INTRA>
-3.97359

>  <SCORE.INTRA.DIHEDRAL>
-10.2438

>  <SCORE.INTRA.DIHEDRAL.0>
14.8538

>  <SCORE.INTRA.POLAR>
0

>  <SCORE.INTRA.POLAR.0>
0

>  <SCORE.INTRA.REPUL>
0.00813192

>  <SCORE.INTRA.REPUL.0>
0

>  <SCORE.INTRA.SOLV>
-2.78925

>  <SCORE.INTRA.SOLV.lig_0>
-100.951

>  <SCORE.INTRA.VDW>
2.50226

>  <SCORE.INTRA.VDW.0>
-5.71388

>  <SCORE.INTRA.norm>
-0.0946093

>  <SCORE.RESTR>
0

>  <SCORE.RESTR.CAVITY>
0

>  <SCORE.RESTR.norm>
0

>  <SCORE.SYSTEM>
0

>  <SCORE.SYSTEM.CONST>
0

>  <SCORE.SYSTEM.DIHEDRAL>
0

>  <SCORE.SYSTEM.SOLV>
0

>  <SCORE.SYSTEM.norm>
0

>  <SCORE.heavy>
42

>  <SCORE.norm>
-0.611074

>  <RMSD>
1.024

$$$$
3c44_lig
 OpenBabel11021811463D
libRbt.so/2013.1/901 2013/11/27
 42 45  0  0  0  0  0  0  0  0999 V2000
   37.0411   33.8437  -12.5367 C   0  0  2  0  0  0  0  0  0  0  0  0
   36.2371   33.7924  -13.7253 O   0  0  0  0  0  0  0  0  0  0  0  0
   33.1820   36.1885  -15.1793 C   0  0  2  0  0  0  0  0  0  0  0  0
   31.9960   36.9927  -15.5120 N   0  0  0  0  0  0  0  0  0  0  0  0
   36.5368   37.7702  -12.6866 C   0  0  1  0  0  0  0  0  0  0  0  0
   38.4016   41.5175  -12.3454 C   0  0  1  0  0  0  0  0  0  0  0  0
   38.4301   33.2760  -12.8467 C   0  0  2  0  0  0  0  0  0  0  0  0
   39.0378   33.9727  -13.9896 N   0  0  0  0  0  0  0  0  0  0  0  0
   32.7830   34.7446  -14.8614 C   0  0  0  0  0  0  0  0  0  0  0  0
   37.2183   38.1363  -11.3673 C   0  0  2  0  0  0  0  0  0  0  0  0
   36.2754   38.7454  -10.4833 O   0  0  0  0  0  0  0  0  0  0  0  0
   37.6274   42.8393  -12.3113 C   0  0  2  0  0  0  0  0  0  0  0  0
   36.5701   42.7813  -13.3301 N   0  0  0  0  0  0  0  0  0  0  0  0
   38.3636   31.7776  -13.1528 C   0  0  1  0  0  0  0  0  0  0  0  0
   39.6927   31.2629  -13.2784 O   0  0  0  0  0  0  0  0  0  0  0  0
   34.0706   33.9341  -14.6793 C   0  0  2  0  0  0  0  0  0  0  0  0
   33.7276   32.5521  -14.3113 N   0  0  0  0  0  0  0  0  0  0  0  0
   38.1871   39.2063  -11.8668 C   0  0  2  0  0  0  0  0  0  0  0  0
   37.4868   40.4179  -12.1937 O   0  0  0  0  0  0  0  0  0  0  0  0
   38.5474   44.0280  -12.6187 C   0  0  1  0  0  0  0  0  0  0  0  0
   39.4465   44.2579  -11.5307 O   0  0  0  0  0  0  0  0  0  0  0  0
   37.6379   31.0483  -12.0207 C   0  0  2  0  0  0  0  0  0  0  0  0
   37.4808   29.6683  -12.3612 O   0  0  0  0  0  0  0  0  0  0  0  0
   34.9997   34.5159  -13.6065 C   0  0  2  0  0  0  0  0  0  0  0  0
   38.6909   38.5501  -13.1426 C   0  0  2  0  0  0  0  0  0  0  0  0
   37.6232   37.7084  -13.6292 O   0  0  0  0  0  0  0  0  0  0  0  0
   39.3647   43.7769  -13.8870 C   0  0  2  0  0  0  0  0  0  0  0  0
   38.4812   43.7676  -15.0119 O   0  0  0  0  0  0  0  0  0  0  0  0
   36.2643   31.6838  -11.8000 C   0  0  2  0  0  0  0  0  0  0  0  0
   36.4084   33.0840  -11.4900 O   0  0  0  0  0  0  0  0  0  0  0  0
   35.2438   36.0181  -13.7357 C   0  0  2  0  0  0  0  0  0  0  0  0
   35.8741   36.5023  -12.5386 O   0  0  0  0  0  0  0  0  0  0  0  0
   39.9425   37.7263  -12.8323 C   0  0  0  0  0  0  0  0  0  0  0  0
   40.3983   37.0983  -14.0327 O   0  0  0  0  0  0  0  0  0  0  0  0
   40.0814   42.4301  -13.7588 C   0  0  1  0  0  0  0  0  0  0  0  0
   39.0894   41.4004  -13.6011 O   0  0  0  0  0  0  0  0  0  0  0  0
   35.5980   30.9548  -10.6304 C   0  0  0  0  0  0  0  0  0  0  0  0
   36.3171   31.2424   -9.3810 O   0  0  0  0  0  0  0  0  0  0  0  0
   33.9283   36.7686  -13.9753 C   0  0  1  0  0  0  0  0  0  0  0  0
   34.1891   38.1586  -14.1819 O   0  0  0  0  0  0  0  0  0  0  0  0
   40.9411   42.1130  -14.9831 C   0  0  0  0  0  0  0  0  0  0  0  0
   41.7362   40.9062  -14.7165 N   0  0  0  0  0  0  0  0  0  0  0  0
  1  2  1  6  0  0  0
  1  7  1  0  0  0  0
  1 30  1  0  0  0  0
  3  4  1  1  0  0  0
  3  9  1  0  0  0  0
  3 39  1  0  0  0  0
  5 10  1  0  0  0  0
  5 26  1  0  0  0  0
  5 32  1  1  0  0  0
  6 12  1  0  0  0  0
  6 36  1  0  0  0  0
  6 19  1  6  0  0  0
  7  8  1  6  0  0  0
  7 14  1  0  0  0  0
  9 16  1  0  0  0  0
 10 11  1  1  0  0  0
 10 18  1  0  0  0  0
 12 13  1  6  0  0  0
 12 20  1  0  0  0  0
 14 15  1  1  0  0  0
 14 22  1  0  0  0  0
 16 17  1  1  0  0  0
 16 24  1  0  0  0  0
 18 19  1  6  0  0  0
 18 25  1  0  0  0  0
 20 21  1  1  0  0  0
 20 27  1  0  0  0  0
 22 23  1  6  0  0  0
 22 29  1  0  0  0  0
 24  2  1  6  0  0  0
 24 31  1  0  0  0  0
 25 26  1  0  0  0  0
 25 33  1  1  0  0  0
 27 28  1  6  0  0  0
 27 35  1  0  0  0  0
 29 30  1  0  0  0  0
 29 37  1  1  0  0  0
 31 32  1  1  0  0  0
 31 39  1  0  0  0  0
 33 34  1  0  0  0  0
 35 36  1  0  0  0  0
 35 41  1  6  0  0  0
 37 38  1  0  0  0  0
 39 40  1  6  0  0  0
 41 42  1  0  0  0  0
M  END
>  <CHROM.1>
-169.57859633,-177.30793157,-164.67976860,165.81913667,-158.79414513,179.19849169
67.71223969,161.01859097,172.36675978,37.18964579,37.06388459,-13.08064195
-1.83100399,-0.21497225,-0.12326595

>  <Name>
3c44_lig

>  <RI>
0

>  <Rbt.Current_Directory>
/home/itssahil/PROJECTS/Mol_Feturizer/New_Systems/rnas/3c44

>  <Rbt.Executable>
rbdock ($Id: //depot/dev/client3/rdock/2013.1/src/exe/rbdock.cxx#4 $)

>  <Rbt.Library>
libRbt.so (2013.1, Build901 2013/11/27)

>  <Rbt.Parameter_File>
/export/apps/rDock/src/rDock_2013.1_src/data/scripts/dock_solv.prm

>  <Rbt.Receptor>
prm/pocket_docking_2.prm

>  <SCORE>
-20.8921

>  <SCORE.INTER>
-16.965

>  <SCORE.INTER.CONST>
1

>  <SCORE.INTER.POLAR>
-1.73137

>  <SCORE.INTER.ROT>
9

>  <SCORE.INTER.SOLV>
20.7905

>  <SCORE.INTER.VDW>
-22.0689

>  <SCORE.INTER.norm>
-0.403928

>  <SCORE.INTRA>
-4.24827

>  <SCORE.INTRA.DIHEDRAL>
-7.80412

>  <SCORE.INTRA.DIHEDRAL.0>
14.8538

>  <SCORE.INTRA.POLAR>
0

>  <SCORE.INTRA.POLAR.0>
0

>  <SCORE.INTRA.REPUL>
0

>  <SCORE.INTRA.REPUL.0>
0

>  <SCORE.INTRA.SOLV>
-2.75467

>  <SCORE.INTRA.SOLV.lig_0>
-100.951

>  <SCORE.INTRA.VDW>
1.03112

>  <SCORE.INTRA.VDW.0>
-5.71388

>  <SCORE.INTRA.norm>
-0.101149

>  <SCORE.RESTR>
0.321173

>  <SCORE.RESTR.CAVITY>
0.321173

>  <SCORE.RESTR.norm>
0.00764698

>  <SCORE.SYSTEM>
0

>  <SCORE.SYSTEM.CONST>
0

>  <SCORE.SYSTEM.DIHEDRAL>
0

>  <SCORE.SYSTEM.SOLV>
0

>  <SCORE.SYSTEM.norm>
0

>  <SCORE.heavy>
42

>  <SCORE.norm>
-0.497431

>  <RMSD>
1.027

$$$$
3c44_lig
 OpenBabel11021811463D
libRbt.so/2013.1/901 2013/11/27
 42 45  0  0  0  0  0  0  0  0999 V2000
   37.2466   34.0206  -12.7316 C   0  0  2  0  0  0  0  0  0  0  0  0
   36.3032   33.9159  -13.8091 O   0  0  0  0  0  0  0  0  0  0  0  0
   33.2944   36.5171  -14.9797 C   0  0  2  0  0  0  0  0  0  0  0  0
   32.1311   37.3873  -15.2103 N   0  0  0  0  0  0  0  0  0  0  0  0
   36.7674   37.8389  -12.5350 C   0  0  1  0  0  0  0  0  0  0  0  0
   38.5694   41.5986  -11.9816 C   0  0  1  0  0  0  0  0  0  0  0  0
   38.5875   33.4307  -13.1809 C   0  0  2  0  0  0  0  0  0  0  0  0
   39.0504   34.0674  -14.4224 N   0  0  0  0  0  0  0  0  0  0  0  0
   32.8475   35.0741  -14.7281 C   0  0  0  0  0  0  0  0  0  0  0  0
   37.3710   38.1815  -11.1722 C   0  0  2  0  0  0  0  0  0  0  0  0
   36.3745   38.7627  -10.3291 O   0  0  0  0  0  0  0  0  0  0  0  0
   37.7756   42.9001  -12.1357 C   0  0  2  0  0  0  0  0  0  0  0  0
   36.9031   42.7721  -13.3110 N   0  0  0  0  0  0  0  0  0  0  0  0
   38.4846   31.9196  -13.4025 C   0  0  1  0  0  0  0  0  0  0  0  0
   39.7886   31.3918  -13.6642 O   0  0  0  0  0  0  0  0  0  0  0  0
   34.1055   34.2025  -14.6526 C   0  0  2  0  0  0  0  0  0  0  0  0
   33.7193   32.8161  -14.3501 N   0  0  0  0  0  0  0  0  0  0  0  0
   38.3555   39.2705  -11.5936 C   0  0  2  0  0  0  0  0  0  0  0  0
   37.6627   40.4829  -11.9327 O   0  0  0  0  0  0  0  0  0  0  0  0
   38.7115   44.0985  -12.3412 C   0  0  1  0  0  0  0  0  0  0  0  0
   39.4135   44.3968  -11.1316 O   0  0  0  0  0  0  0  0  0  0  0  0
   37.9032   31.2505  -12.1557 C   0  0  2  0  0  0  0  0  0  0  0  0
   37.7062   29.8564  -12.4062 O   0  0  0  0  0  0  0  0  0  0  0  0
   35.1047   34.6808  -13.5917 C   0  0  2  0  0  0  0  0  0  0  0  0
   38.9358   38.6470  -12.8532 C   0  0  2  0  0  0  0  0  0  0  0  0
   37.9050   37.8072  -13.4167 O   0  0  0  0  0  0  0  0  0  0  0  0
   39.7322   43.8157  -13.4448 C   0  0  2  0  0  0  0  0  0  0  0  0
   39.0476   43.7365  -14.6982 O   0  0  0  0  0  0  0  0  0  0  0  0
   36.5668   31.9038  -11.8002 C   0  0  2  0  0  0  0  0  0  0  0  0
   36.7471   33.3165  -11.5793 O   0  0  0  0  0  0  0  0  0  0  0  0
   35.4077   36.1768  -13.6446 C   0  0  2  0  0  0  0  0  0  0  0  0
   36.1098   36.5624  -12.4517 O   0  0  0  0  0  0  0  0  0  0  0  0
   40.1762   37.8272  -12.4915 C   0  0  0  0  0  0  0  0  0  0  0  0
   41.2030   38.7100  -12.0340 O   0  0  0  0  0  0  0  0  0  0  0  0
   40.4428   42.4945  -13.1391 C   0  0  1  0  0  0  0  0  0  0  0  0
   39.4577   41.4469  -13.1002 O   0  0  0  0  0  0  0  0  0  0  0  0
   36.0488   31.2364  -10.5235 C   0  0  0  0  0  0  0  0  0  0  0  0
   36.8101   31.7139   -9.3602 O   0  0  0  0  0  0  0  0  0  0  0  0
   34.1169   36.9932  -13.7796 C   0  0  1  0  0  0  0  0  0  0  0  0
   34.4284   38.3814  -13.9170 O   0  0  0  0  0  0  0  0  0  0  0  0
   41.4992   42.1489  -14.1893 C   0  0  0  0  0  0  0  0  0  0  0  0
   40.8432   41.9550  -15.4899 N   0  0  0  0  0  0  0  0  0  0  0  0
  1  2  1  6  0  0  0
  1  7  1  0  0  0  0
  1 30  1  0  0  0  0
  3  4  1  1  0  0  0
  3  9  1  0  0  0  0
  3 39  1  0  0  0  0
  5 10  1  0  0  0  0
  5 26  1  0  0  0  0
  5 32  1  1  0  0  0
  6 12  1  0  0  0  0
  6 36  1  0  0  0  0
  6 19  1  6  0  0  0
  7  8  1  6  0  0  0
  7 14  1  0  0  0  0
  9 16  1  0  0  0  0
 10 11  1  1  0  0  0
 10 18  1  0  0  0  0
 12 13  1  6  0  0  0
 12 20  1  0  0  0  0
 14 15  1  1  0  0  0
 14 22  1  0  0  0  0
 16 17  1  1  0  0  0
 16 24  1  0  0  0  0
 18 19  1  6  0  0  0
 18 25  1  0  0  0  0
 20 21  1  1  0  0  0
 20 27  1  0  0  0  0
 22 23  1  6  0  0  0
 22 29  1  0  0  0  0
 24  2  1  6  0  0  0
 24 31  1  0  0  0  0
 25 26  1  0  0  0  0
 25 33  1  1  0  0  0
 27 28  1  6  0  0  0
 27 35  1  0  0  0  0
 29 30  1  0  0  0  0
 29 37  1  1  0  0  0
 31 32  1  1  0  0  0
 31 39  1  0  0  0  0
 33 34  1  0  0  0  0
 35 36  1  0  0  0  0
 35 41  1  6  0  0  0
 37 38  1  0  0  0  0
 39 40  1  6  0  0  0
 41 42  1  0  0  0  0
M  END
>  <CHROM.1>
-167.97836254,175.23025881,-171.55488392,164.60046235,-167.25376005,-66.64716418
74.85095450,163.81778038,-63.15804910,37.39622789,37.27118211,-12.92104568
-1.84862024,-0.26220179,-0.09604291

>  <Name>
3c44_lig

>  <RI>
224

>  <Rbt.Current_Directory>
/home/itssahil/PROJECTS/Mol_Feturizer/New_Systems/rnas/3c44

>  <Rbt.Executable>
rbdock ($Id: //depot/dev/client3/rdock/2013.1/src/exe/rbdock.cxx#4 $)

>  <Rbt.Library>
libRbt.so (2013.1, Build901 2013/11/27)

>  <Rbt.Parameter_File>
/export/apps/rDock/src/rDock_2013.1_src/data/scripts/dock_solv.prm

>  <Rbt.Receptor>
prm/pocket_docking_3.prm

>  <SCORE>
-23.937

>  <SCORE.INTER>
-20.0465

>  <SCORE.INTER.CONST>
1

>  <SCORE.INTER.POLAR>
-1.6887

>  <SCORE.INTER.ROT>
9

>  <SCORE.INTER.SOLV>
20.6042

>  <SCORE.INTER.VDW>
-24.2034

>  <SCORE.INTER.norm>
-0.477298

>  <SCORE.INTRA>
-3.89997

>  <SCORE.INTRA.DIHEDRAL>
-9.26094

>  <SCORE.INTRA.DIHEDRAL.0>
14.8538

>  <SCORE.INTRA.POLAR>
0

>  <SCORE.INTRA.POLAR.0>
0

>  <SCORE.INTRA.REPUL>
0.0107943

>  <SCORE.INTRA.REPUL.0>
0

>  <SCORE.INTRA.SOLV>
-2.45224

>  <SCORE.INTRA.SOLV.lig_0>
-100.951

>  <SCORE.INTRA.VDW>
1.90265

>  <SCORE.INTRA.VDW.0>
-5.71388

>  <SCORE.INTRA.norm>
-0.0928564

>  <SCORE.RESTR>
0.0094525

>  <SCORE.RESTR.CAVITY>
0.0094525

>  <SCORE.RESTR.norm>
0.00022506

>  <SCORE.SYSTEM>
0

>  <SCORE.SYSTEM.CONST>
0

>  <SCORE.SYSTEM.DIHEDRAL>
0

>  <SCORE.SYSTEM.SOLV>
0

>  <SCORE.SYSTEM.norm>
0

>  <SCORE.heavy>
42

>  <SCORE.norm>
-0.56993

>  <RMSD>
1.038

$$$$
3c44_lig
 OpenBabel11021811463D
libRbt.so/2013.1/901 2013/11/27
 42 45  0  0  0  0  0  0  0  0999 V2000
   36.9184   34.7411  -12.7440 C   0  0  2  0  0  0  0  0  0  0  0  0
   36.0954   34.5028  -13.8963 O   0  0  0  0  0  0  0  0  0  0  0  0
   32.5959   36.2180  -15.3111 C   0  0  2  0  0  0  0  0  0  0  0  0
   31.2706   36.7752  -15.6222 N   0  0  0  0  0  0  0  0  0  0  0  0
   36.1153   38.3146  -13.1804 C   0  0  1  0  0  0  0  0  0  0  0  0
   37.9777   41.9789  -13.8964 C   0  0  1  0  0  0  0  0  0  0  0  0
   38.3899   34.5705  -13.1356 C   0  0  2  0  0  0  0  0  0  0  0  0
   38.7303   35.4280  -14.2801 N   0  0  0  0  0  0  0  0  0  0  0  0
   32.4790   34.7500  -14.8908 C   0  0  0  0  0  0  0  0  0  0  0  0
   35.7102   39.4969  -12.2989 C   0  0  2  0  0  0  0  0  0  0  0  0
   34.5748   40.1581  -12.8604 O   0  0  0  0  0  0  0  0  0  0  0  0
   37.9847   42.5630  -15.3129 C   0  0  2  0  0  0  0  0  0  0  0  0
   38.1182   41.4547  -16.2684 N   0  0  0  0  0  0  0  0  0  0  0  0
   38.7067   33.1154  -13.4898 C   0  0  1  0  0  0  0  0  0  0  0  0
   40.1162   32.9760  -13.6928 O   0  0  0  0  0  0  0  0  0  0  0  0
   33.8987   34.1948  -14.7350 C   0  0  2  0  0  0  0  0  0  0  0  0
   33.8278   32.8009  -14.2715 N   0  0  0  0  0  0  0  0  0  0  0  0
   36.9382   40.3865  -12.4820 C   0  0  2  0  0  0  0  0  0  0  0  0
   36.9524   40.9753  -13.7928 O   0  0  0  0  0  0  0  0  0  0  0  0
   39.1601   43.5297  -15.5075 C   0  0  1  0  0  0  0  0  0  0  0  0
   38.9468   44.7314  -14.7623 O   0  0  0  0  0  0  0  0  0  0  0  0
   38.2607   32.1953  -12.3520 C   0  0  2  0  0  0  0  0  0  0  0  0
   38.4571   30.8308  -12.7325 O   0  0  0  0  0  0  0  0  0  0  0  0
   34.7541   35.0012  -13.7499 C   0  0  2  0  0  0  0  0  0  0  0  0
   38.0478   39.3521  -12.3771 C   0  0  2  0  0  0  0  0  0  0  0  0
   37.5024   38.1043  -12.8574 O   0  0  0  0  0  0  0  0  0  0  0  0
   40.4749   42.8952  -15.0510 C   0  0  2  0  0  0  0  0  0  0  0  0
   40.8032   41.8227  -15.9387 O   0  0  0  0  0  0  0  0  0  0  0  0
   36.7814   32.4373  -12.0479 C   0  0  2  0  0  0  0  0  0  0  0  0
   36.5655   33.8183  -11.6966 O   0  0  0  0  0  0  0  0  0  0  0  0
   34.7167   36.5111  -13.9767 C   0  0  2  0  0  0  0  0  0  0  0  0
   35.3017   37.1768  -12.8455 O   0  0  0  0  0  0  0  0  0  0  0  0
   38.4961   39.2313  -10.9190 C   0  0  0  0  0  0  0  0  0  0  0  0
   39.5854   38.3093  -10.8398 O   0  0  0  0  0  0  0  0  0  0  0  0
   40.3060   42.3735  -13.6216 C   0  0  1  0  0  0  0  0  0  0  0  0
   39.2574   41.3887  -13.6179 O   0  0  0  0  0  0  0  0  0  0  0  0
   36.3944   31.5324  -10.8753 C   0  0  0  0  0  0  0  0  0  0  0  0
   34.9311   31.4358  -10.7742 O   0  0  0  0  0  0  0  0  0  0  0  0
   33.2780   36.9987  -14.1848 C   0  0  1  0  0  0  0  0  0  0  0  0
   33.2738   38.3965  -14.4834 O   0  0  0  0  0  0  0  0  0  0  0  0
   41.5887   41.7402  -13.0811 C   0  0  0  0  0  0  0  0  0  0  0  0
   42.6547   42.7515  -13.0574 N   0  0  0  0  0  0  0  0  0  0  0  0
  1  2  1  6  0  0  0
  1  7  1  0  0  0  0
  1 30  1  0  0  0  0
  3  4  1  1  0  0  0
  3  9  1  0  0  0  0
  3 39  1  0  0  0  0
  5 10  1  0  0  0  0
  5 26  1  0  0  0  0
  5 32  1  1  0  0  0
  6 12  1  0  0  0  0
  6 36  1  0  0  0  0
  6 19  1  6  0  0  0
  7  8  1  6  0  0  0
  7 14  1  0  0  0  0
  9 16  1  0  0  0  0
 10 11  1  6  0  0  0
 10 18  1  0  0  0  0
 12 13  1  6  0  0  0
 12 20  1  0  0  0  0
 14 15  1  1  0  0  0
 14 22  1  0  0  0  0
 16 17  1  1  0  0  0
 16 24  1  0  0  0  0
 18 19  1  6  0  0  0
 18 25  1  0  0  0  0
 20 21  1  1  0  0  0
 20 27  1  0  0  0  0
 22 23  1  6  0  0  0
 22 29  1  0  0  0  0
 24  2  1  6  0  0  0
 24 31  1  0  0  0  0
 25 26  1  0  0  0  0
 25 33  1  1  0  0  0
 27 28  1  6  0  0  0
 27 35  1  0  0  0  0
 29 30  1  0  0  0  0
 29 37  1  1  0  0  0
 31 32  1  1  0  0  0
 31 39  1  0  0  0  0
 33 34  1  0  0  0  0
 35 36  1  0  0  0  0
 35 41  1  6  0  0  0
 37 38  1  0  0  0  0
 39 40  1  6  0  0  0
 41 42  1  0  0  0  0
M  END
>  <CHROM.1>
-163.17095696,131.36814096,178.77213653,170.50584975,-157.17692988,-177.00942225
-164.38146112,140.80987275,60.97106860,37.08675047,37.56093637,-13.49291270
-1.96129092,-0.23649398,-0.22378083

>  <Name>
3c44_lig

>  <RI>
224

>  <Rbt.Current_Directory>
/home/itssahil/PROJECTS/Mol_Feturizer/New_Systems/rnas/3c44

>  <Rbt.Executable>
rbdock ($Id: //depot/dev/client3/rdock/2013.1/src/exe/rbdock.cxx#4 $)

>  <Rbt.Library>
libRbt.so (2013.1, Build901 2013/11/27)

>  <Rbt.Parameter_File>
/export/apps/rDock/src/rDock_2013.1_src/data/scripts/dock_solv.prm

>  <Rbt.Receptor>
prm/pocket_docking_3.prm

>  <SCORE>
-14.9893

>  <SCORE.INTER>
-15.8761

>  <SCORE.INTER.CONST>
1

>  <SCORE.INTER.POLAR>
-1.44404

>  <SCORE.INTER.ROT>
9

>  <SCORE.INTER.SOLV>
22.9887

>  <SCORE.INTER.VDW>
-23.0335

>  <SCORE.INTER.norm>
-0.378003

>  <SCORE.INTRA>
0.88688

>  <SCORE.INTRA.DIHEDRAL>
2.12286

>  <SCORE.INTRA.DIHEDRAL.0>
14.8538

>  <SCORE.INTRA.POLAR>
0

>  <SCORE.INTRA.POLAR.0>
0

>  <SCORE.INTRA.REPUL>
0

>  <SCORE.INTRA.REPUL.0>
0

>  <SCORE.INTRA.SOLV>
-2.41346

>  <SCORE.INTRA.SOLV.lig_0>
-100.951

>  <SCORE.INTRA.VDW>
1.03218

>  <SCORE.INTRA.VDW.0>
-5.71388

>  <SCORE.INTRA.norm>
0.0211162

>  <SCORE.RESTR>
0

>  <SCORE.RESTR.CAVITY>
0

>  <SCORE.RESTR.norm>
0

>  <SCORE.SYSTEM>
0

>  <SCORE.SYSTEM.CONST>
0

>  <SCORE.SYSTEM.DIHEDRAL>
0

>  <SCORE.SYSTEM.SOLV>
0

>  <SCORE.SYSTEM.norm>
0

>  <SCORE.heavy>
42

>  <SCORE.norm>
-0.356887

>  <RMSD>
1.118

$$$$
3c44_lig
 OpenBabel11021811463D
libRbt.so/2013.1/901 2013/11/27
 42 45  0  0  0  0  0  0  0  0999 V2000
   37.3211   34.0647  -12.7528 C   0  0  2  0  0  0  0  0  0  0  0  0
   36.3858   33.9900  -13.8397 O   0  0  0  0  0  0  0  0  0  0  0  0
   33.3677   36.6098  -14.9427 C   0  0  2  0  0  0  0  0  0  0  0  0
   32.2000   37.4797  -15.1519 N   0  0  0  0  0  0  0  0  0  0  0  0
   36.8234   37.8648  -12.4325 C   0  0  1  0  0  0  0  0  0  0  0  0
   38.5342   41.6447  -11.5381 C   0  0  1  0  0  0  0  0  0  0  0  0
   38.6475   33.4336  -13.1891 C   0  0  2  0  0  0  0  0  0  0  0  0
   39.1424   34.0564  -14.4253 N   0  0  0  0  0  0  0  0  0  0  0  0
   32.9289   35.1561  -14.7440 C   0  0  0  0  0  0  0  0  0  0  0  0
   37.3700   38.1889  -11.0414 C   0  0  2  0  0  0  0  0  0  0  0  0
   36.3390   38.7579  -10.2320 O   0  0  0  0  0  0  0  0  0  0  0  0
   37.8304   42.9080  -12.0446 C   0  0  2  0  0  0  0  0  0  0  0  0
   37.4486   42.6927  -13.4471 N   0  0  0  0  0  0  0  0  0  0  0  0
   38.5000   31.9266  -13.4132 C   0  0  1  0  0  0  0  0  0  0  0  0
   39.7895   31.3588  -13.6623 O   0  0  0  0  0  0  0  0  0  0  0  0
   34.1923   34.2908  -14.6892 C   0  0  2  0  0  0  0  0  0  0  0  0
   33.8134   32.8922  -14.4373 N   0  0  0  0  0  0  0  0  0  0  0  0
   38.3699   39.2842  -11.4069 C   0  0  2  0  0  0  0  0  0  0  0  0
   37.6902   40.5008  -11.7575 O   0  0  0  0  0  0  0  0  0  0  0  0
   38.7574   44.1280  -11.9649 C   0  0  1  0  0  0  0  0  0  0  0  0
   38.9651   44.5090  -10.6024 O   0  0  0  0  0  0  0  0  0  0  0  0
   37.8855   31.2751  -12.1729 C   0  0  2  0  0  0  0  0  0  0  0  0
   37.6479   29.8880  -12.4267 O   0  0  0  0  0  0  0  0  0  0  0  0
   35.1805   34.7389  -13.6051 C   0  0  2  0  0  0  0  0  0  0  0  0
   39.0022   38.6785  -12.6500 C   0  0  2  0  0  0  0  0  0  0  0  0
   37.9964   37.8459  -13.2669 O   0  0  0  0  0  0  0  0  0  0  0  0
   40.1146   43.8298  -12.6042 C   0  0  2  0  0  0  0  0  0  0  0  0
   39.9355   43.6661  -14.0139 O   0  0  0  0  0  0  0  0  0  0  0  0
   36.5665   31.9694  -11.8302 C   0  0  2  0  0  0  0  0  0  0  0  0
   36.7885   33.3757  -11.6062 O   0  0  0  0  0  0  0  0  0  0  0  0
   35.4736   36.2378  -13.6044 C   0  0  2  0  0  0  0  0  0  0  0  0
   36.1645   36.5869  -12.3938 O   0  0  0  0  0  0  0  0  0  0  0  0
   40.2276   37.8545  -12.2489 C   0  0  0  0  0  0  0  0  0  0  0  0
   39.8020   36.7298  -11.4762 O   0  0  0  0  0  0  0  0  0  0  0  0
   40.6860   42.5511  -11.9858 C   0  0  1  0  0  0  0  0  0  0  0  0
   39.7715   41.4718  -12.2469 O   0  0  0  0  0  0  0  0  0  0  0  0
   36.0153   31.3177  -10.5594 C   0  0  0  0  0  0  0  0  0  0  0  0
   36.9485   31.5221   -9.4421 O   0  0  0  0  0  0  0  0  0  0  0  0
   34.1781   37.0498  -13.7209 C   0  0  1  0  0  0  0  0  0  0  0  0
   34.4811   38.4439  -13.8082 O   0  0  0  0  0  0  0  0  0  0  0  0
   42.0580   42.1939  -12.5588 C   0  0  0  0  0  0  0  0  0  0  0  0
   42.6390   41.0957  -11.7740 N   0  0  0  0  0  0  0  0  0  0  0  0
  1  2  1  6  0  0  0
  1  7  1  0  0  0  0
  1 30  1  0  0  0  0
  3  4  1  1  0  0  0
  3  9  1  0  0  0  0
  3 39  1  0  0  0  0
  5 10  1  0  0  0  0
  5 26  1  0  0  0  0
  5 32  1  1  0  0  0
  6 12  1  0  0  0  0
  6 36  1  0  0  0  0
  6 19  1  6  0  0  0
  7  8  1  6  0  0  0
  7 14  1  0  0  0  0
  9 16  1  0  0  0  0
 10 11  1  1  0  0  0
 10 18  1  0  0  0  0
 12 13  1  6  0  0  0
 12 20  1  0  0  0  0
 14 15  1  1  0  0  0
 14 22  1  0  0  0  0
 16 17  1  1  0  0  0
 16 24  1  0  0  0  0
 18 19  1  6  0  0  0
 18 25  1  0  0  0  0
 20 21  1  1  0  0  0
 20 27  1  0  0  0  0
 22 23  1  6  0  0  0
 22 29  1  0  0  0  0
 24  2  1  6  0  0  0
 24 31  1  0  0  0  0
 25 26  1  0  0  0  0
 25 33  1  1  0  0  0
 27 28  1  6  0  0  0
 27 35  1  0  0  0  0
 29 30  1  0  0  0  0
 29 37  1  1  0  0  0
 31 32  1  1  0  0  0
 31 39  1  0  0  0  0
 33 34  1  0  0  0  0
 35 36  1  0  0  0  0
 35 41  1  6  0  0  0
 37 38  1  0  0  0  0
 39 40  1  6  0  0  0
 41 42  1  0  0  0  0
M  END
>  <CHROM.1>
-170.86297401,173.19253239,174.67544246,154.93608770,-167.29734532,66.07792255
62.15389223,163.31066846,170.83070343,37.49460094,37.22525232,-12.63646108
-1.88000237,-0.33065407,-0.03701087

>  <Name>
3c44_lig

>  <RI>
0

>  <Rbt.Current_Directory>
/home/itssahil/PROJECTS/Mol_Feturizer/New_Systems/rnas/3c44

>  <Rbt.Executable>
rbdock ($Id: //depot/dev/client3/rdock/2013.1/src/exe/rbdock.cxx#4 $)

>  <Rbt.Library>
libRbt.so (2013.1, Build901 2013/11/27)

>  <Rbt.Parameter_File>
/export/apps/rDock/src/rDock_2013.1_src/data/scripts/dock_solv.prm

>  <Rbt.Receptor>
prm/pocket_docking_7.prm

>  <SCORE>
-23.3448

>  <SCORE.INTER>
-19.2393

>  <SCORE.INTER.CONST>
1

>  <SCORE.INTER.POLAR>
-1.62828

>  <SCORE.INTER.ROT>
9

>  <SCORE.INTER.SOLV>
26.739

>  <SCORE.INTER.VDW>
-25.9116

>  <SCORE.INTER.norm>
-0.458078

>  <SCORE.INTRA>
-4.10557

>  <SCORE.INTRA.DIHEDRAL>
-8.65805

>  <SCORE.INTRA.DIHEDRAL.0>
14.8538

>  <SCORE.INTRA.POLAR>
0

>  <SCORE.INTRA.POLAR.0>
0

>  <SCORE.INTRA.REPUL>
0.0158535

>  <SCORE.INTRA.REPUL.0>
0

>  <SCORE.INTRA.SOLV>
-3.36254

>  <SCORE.INTRA.SOLV.lig_0>
-100.951

>  <SCORE.INTRA.VDW>
1.82546

>  <SCORE.INTRA.VDW.0>
-5.71388

>  <SCORE.INTRA.norm>
-0.0977516

>  <SCORE.RESTR>
0

>  <SCORE.RESTR.CAVITY>
0

>  <SCORE.RESTR.norm>
0

>  <SCORE.SYSTEM>
0

>  <SCORE.SYSTEM.CONST>
0

>  <SCORE.SYSTEM.DIHEDRAL>
0

>  <SCORE.SYSTEM.SOLV>
0

>  <SCORE.SYSTEM.norm>
0

>  <SCORE.heavy>
42

>  <SCORE.norm>
-0.555829

>  <RMSD>
1.141

$$$$
3c44_lig
 OpenBabel11021811463D
libRbt.so/2013.1/901 2013/11/27
 42 45  0  0  0  0  0  0  0  0999 V2000
   36.6193   34.9791  -13.0380 C   0  0  2  0  0  0  0  0  0  0  0  0
   35.9069   34.7335  -14.2603 O   0  0  0  0  0  0  0  0  0  0  0  0
   32.7684   36.7455  -16.0744 C   0  0  2  0  0  0  0  0  0  0  0  0
   31.5414   37.4076  -16.5434 N   0  0  0  0  0  0  0  0  0  0  0  0
   35.9669   38.5914  -13.3765 C   0  0  1  0  0  0  0  0  0  0  0  0
   37.6620   42.4745  -13.3389 C   0  0  1  0  0  0  0  0  0  0  0  0
   38.1249   34.8976  -13.3107 C   0  0  2  0  0  0  0  0  0  0  0  0
   38.5099   35.8064  -14.4002 N   0  0  0  0  0  0  0  0  0  0  0  0
   32.4952   35.2759  -15.7414 C   0  0  0  0  0  0  0  0  0  0  0  0
   35.6795   39.5666  -12.2339 C   0  0  2  0  0  0  0  0  0  0  0  0
   34.5206   40.3456  -12.5368 O   0  0  0  0  0  0  0  0  0  0  0  0
   37.5339   43.3684  -14.5767 C   0  0  2  0  0  0  0  0  0  0  0  0
   37.8380   42.5585  -15.7644 N   0  0  0  0  0  0  0  0  0  0  0  0
   38.5483   33.4726  -13.6754 C   0  0  1  0  0  0  0  0  0  0  0  0
   39.9752   33.4132  -13.7645 O   0  0  0  0  0  0  0  0  0  0  0  0
   33.8378   34.6146  -15.4128 C   0  0  2  0  0  0  0  0  0  0  0  0
   33.6087   33.2139  -15.0272 N   0  0  0  0  0  0  0  0  0  0  0  0
   36.9144   40.4590  -12.3410 C   0  0  2  0  0  0  0  0  0  0  0  0
   36.8315   41.3105  -13.4957 O   0  0  0  0  0  0  0  0  0  0  0  0
   38.5166   44.5450  -14.5141 C   0  0  1  0  0  0  0  0  0  0  0  0
   38.1129   45.4799  -13.5102 O   0  0  0  0  0  0  0  0  0  0  0  0
   38.0621   32.4961  -12.6029 C   0  0  2  0  0  0  0  0  0  0  0  0
   38.3630   31.1560  -13.0013 O   0  0  0  0  0  0  0  0  0  0  0  0
   34.5946   35.3219  -14.2817 C   0  0  2  0  0  0  0  0  0  0  0  0
   37.9952   39.4117  -12.5581 C   0  0  2  0  0  0  0  0  0  0  0  0
   37.3697   38.3001  -13.2351 O   0  0  0  0  0  0  0  0  0  0  0  0
   39.9325   44.0622  -14.1950 C   0  0  2  0  0  0  0  0  0  0  0  0
   40.4235   43.3047  -15.3047 O   0  0  0  0  0  0  0  0  0  0  0  0
   36.5521   32.6510  -12.4161 C   0  0  2  0  0  0  0  0  0  0  0  0
   36.2333   34.0075  -12.0479 O   0  0  0  0  0  0  0  0  0  0  0  0
   34.6905   36.8376  -14.4431 C   0  0  2  0  0  0  0  0  0  0  0  0
   35.1501   37.4191  -13.2120 O   0  0  0  0  0  0  0  0  0  0  0  0
   38.5665   38.9807  -11.2056 C   0  0  0  0  0  0  0  0  0  0  0  0
   37.5356   38.3503  -10.4422 O   0  0  0  0  0  0  0  0  0  0  0  0
   39.8906   43.1963  -12.9331 C   0  0  1  0  0  0  0  0  0  0  0  0
   39.0315   42.0698  -13.1830 O   0  0  0  0  0  0  0  0  0  0  0  0
   36.1210   31.6918  -11.3037 C   0  0  0  0  0  0  0  0  0  0  0  0
   34.6545   31.6012  -11.2558 O   0  0  0  0  0  0  0  0  0  0  0  0
   33.3322   37.4348  -14.8293 C   0  0  1  0  0  0  0  0  0  0  0  0
   33.4637   38.8389  -15.0621 O   0  0  0  0  0  0  0  0  0  0  0  0
   41.2766   42.6891  -12.5328 C   0  0  0  0  0  0  0  0  0  0  0  0
   41.7843   41.7915  -13.5798 N   0  0  0  0  0  0  0  0  0  0  0  0
  1  2  1  6  0  0  0
  1  7  1  0  0  0  0
  1 30  1  0  0  0  0
  3  4  1  1  0  0  0
  3  9  1  0  0  0  0
  3 39  1  0  0  0  0
  5 10  1  0  0  0  0
  5 26  1  0  0  0  0
  5 32  1  1  0  0  0
  6 12  1  0  0  0  0
  6 36  1  0  0  0  0
  6 19  1  6  0  0  0
  7  8  1  6  0  0  0
  7 14  1  0  0  0  0
  9 16  1  0  0  0  0
 10 11  1  6  0  0  0
 10 18  1  0  0  0  0
 12 13  1  6  0  0  0
 12 20  1  0  0  0  0
 14 15  1  1  0  0  0
 14 22  1  0  0  0  0
 16 17  1  1  0  0  0
 16 24  1  0  0  0  0
 18 19  1  6  0  0  0
 18 25  1  0  0  0  0
 20 21  1  1  0  0  0
 20 27  1  0  0  0  0
 22 23  1  6  0  0  0
 22 29  1  0  0  0  0
 24  2  1  6  0  0  0
 24 31  1  0  0  0  0
 25 26  1  0  0  0  0
 25 33  1  1  0  0  0
 27 28  1  6  0  0  0
 27 35  1  0  0  0  0
 29 30  1  0  0  0  0
 29 37  1  1  0  0  0
 31 32  1  1  0  0  0
 31 39  1  0  0  0  0
 33 34  1  0  0  0  0
 35 36  1  0  0  0  0
 35 41  1  6  0  0  0
 37 38  1  0  0  0  0
 39 40  1  6  0  0  0
 41 42  1  0  0  0  0
M  END
>  <CHROM.1>
-154.93925992,144.74429063,-179.17513854,157.22314952,-162.67815082,63.75076768
-168.99817161,146.90305248,-64.52905657,36.83315655,37.96270130,-13.56171545
-1.90962281,-0.35859911,-0.15312213

>  <Name>
3c44_lig

>  <RI>
0

>  <Rbt.Current_Directory>
/home/itssahil/PROJECTS/Mol_Feturizer/New_Systems/rnas/3c44

>  <Rbt.Executable>
rbdock ($Id: //depot/dev/client3/rdock/2013.1/src/exe/rbdock.cxx#4 $)

>  <Rbt.Library>
libRbt.so (2013.1, Build901 2013/11/27)

>  <Rbt.Parameter_File>
/export/apps/rDock/src/rDock_2013.1_src/data/scripts/dock_solv.prm

>  <Rbt.Receptor>
prm/pocket_docking_2.prm

>  <SCORE>
-13.9341

>  <SCORE.INTER>
-14.9995

>  <SCORE.INTER.CONST>
1

>  <SCORE.INTER.POLAR>
-1.54367

>  <SCORE.INTER.ROT>
9

>  <SCORE.INTER.SOLV>
17.6366

>  <SCORE.INTER.VDW>
-20.3329

>  <SCORE.INTER.norm>
-0.35713

>  <SCORE.INTRA>
1.04948

>  <SCORE.INTRA.DIHEDRAL>
0.927611

>  <SCORE.INTRA.DIHEDRAL.0>
14.8538

>  <SCORE.INTRA.POLAR>
0

>  <SCORE.INTRA.POLAR.0>
0

>  <SCORE.INTRA.REPUL>
0

>  <SCORE.INTRA.REPUL.0>
0

>  <SCORE.INTRA.SOLV>
-0.422905

>  <SCORE.INTRA.SOLV.lig_0>
-100.951

>  <SCORE.INTRA.VDW>
0.797122

>  <SCORE.INTRA.VDW.0>
-5.71388

>  <SCORE.INTRA.norm>
0.0249875

>  <SCORE.RESTR>
0.0159028

>  <SCORE.RESTR.CAVITY>
0.0159028

>  <SCORE.RESTR.norm>
0.000378639

>  <SCORE.SYSTEM>
0

>  <SCORE.SYSTEM.CONST>
0

>  <SCORE.SYSTEM.DIHEDRAL>
0

>  <SCORE.SYSTEM.SOLV>
0

>  <SCORE.SYSTEM.norm>
0

>  <SCORE.heavy>
42

>  <SCORE.norm>
-0.331764

>  <RMSD>
1.145

$$$$
3c44_lig
 OpenBabel11021811463D
libRbt.so/2013.1/901 2013/11/27
 42 45  0  0  0  0  0  0  0  0999 V2000
   36.5408   34.8512  -12.9488 C   0  0  2  0  0  0  0  0  0  0  0  0
   35.9142   34.7529  -14.2370 O   0  0  0  0  0  0  0  0  0  0  0  0
   32.7918   36.7485  -16.0966 C   0  0  2  0  0  0  0  0  0  0  0  0
   31.5685   37.4051  -16.5828 N   0  0  0  0  0  0  0  0  0  0  0  0
   35.9374   38.6252  -13.3681 C   0  0  1  0  0  0  0  0  0  0  0  0
   37.6169   42.5062  -13.3347 C   0  0  1  0  0  0  0  0  0  0  0  0
   38.0496   34.6366  -13.1081 C   0  0  2  0  0  0  0  0  0  0  0  0
   38.6094   35.5670  -14.0990 N   0  0  0  0  0  0  0  0  0  0  0  0
   32.5187   35.2795  -15.7608 C   0  0  0  0  0  0  0  0  0  0  0  0
   35.6369   39.5906  -12.2206 C   0  0  2  0  0  0  0  0  0  0  0  0
   34.4669   40.3546  -12.5191 O   0  0  0  0  0  0  0  0  0  0  0  0
   37.4927   43.3935  -14.5777 C   0  0  2  0  0  0  0  0  0  0  0  0
   37.7693   42.5694  -15.7624 N   0  0  0  0  0  0  0  0  0  0  0  0
   38.3657   33.2012  -13.5360 C   0  0  1  0  0  0  0  0  0  0  0  0
   39.7829   33.0052  -13.5173 O   0  0  0  0  0  0  0  0  0  0  0  0
   33.8592   34.6234  -15.4135 C   0  0  2  0  0  0  0  0  0  0  0  0
   33.6294   33.2237  -15.0249 N   0  0  0  0  0  0  0  0  0  0  0  0
   36.8589   40.5011  -12.3240 C   0  0  2  0  0  0  0  0  0  0  0  0
   36.7632   41.3570  -13.4744 O   0  0  0  0  0  0  0  0  0  0  0  0
   38.4978   44.5518  -14.5339 C   0  0  1  0  0  0  0  0  0  0  0  0
   38.1219   45.5013  -13.5329 O   0  0  0  0  0  0  0  0  0  0  0  0
   37.7005   32.2146  -12.5746 C   0  0  2  0  0  0  0  0  0  0  0  0
   37.9059   30.8780  -13.0397 O   0  0  0  0  0  0  0  0  0  0  0  0
   34.6006   35.3375  -14.2764 C   0  0  2  0  0  0  0  0  0  0  0  0
   37.9544   39.4703  -12.5468 C   0  0  2  0  0  0  0  0  0  0  0  0
   37.3443   38.3532  -13.2290 O   0  0  0  0  0  0  0  0  0  0  0  0
   39.9077   44.0448  -14.2257 C   0  0  2  0  0  0  0  0  0  0  0  0
   40.3729   43.2703  -15.3346 O   0  0  0  0  0  0  0  0  0  0  0  0
   36.2015   32.5079  -12.4960 C   0  0  2  0  0  0  0  0  0  0  0  0
   35.9825   33.8645  -12.0612 O   0  0  0  0  0  0  0  0  0  0  0  0
   34.6941   36.8528  -14.4430 C   0  0  2  0  0  0  0  0  0  0  0  0
   35.1374   37.4406  -13.2090 O   0  0  0  0  0  0  0  0  0  0  0  0
   38.5326   39.0408  -11.1967 C   0  0  0  0  0  0  0  0  0  0  0  0
   37.5417   38.3039  -10.4770 O   0  0  0  0  0  0  0  0  0  0  0  0
   39.8626   43.1890  -12.9570 C   0  0  1  0  0  0  0  0  0  0  0  0
   38.9801   42.0771  -13.1898 O   0  0  0  0  0  0  0  0  0  0  0  0
   35.5893   31.5305  -11.4894 C   0  0  0  0  0  0  0  0  0  0  0  0
   36.1865   31.7337  -10.1616 O   0  0  0  0  0  0  0  0  0  0  0  0
   33.3388   37.4446  -14.8477 C   0  0  1  0  0  0  0  0  0  0  0  0
   33.4692   38.8481  -15.0848 O   0  0  0  0  0  0  0  0  0  0  0  0
   41.2430   42.6589  -12.5671 C   0  0  0  0  0  0  0  0  0  0  0  0
   41.7390   41.7733  -13.6298 N   0  0  0  0  0  0  0  0  0  0  0  0
  1  2  1  6  0  0  0
  1  7  1  0  0  0  0
  1 30  1  0  0  0  0
  3  4  1  1  0  0  0
  3  9  1  0  0  0  0
  3 39  1  0  0  0  0
  5 10  1  0  0  0  0
  5 26  1  0  0  0  0
  5 32  1  1  0  0  0
  6 12  1  0  0  0  0
  6 36  1  0  0  0  0
  6 19  1  6  0  0  0
  7  8  1  6  0  0  0
  7 14  1  0  0  0  0
  9 16  1  0  0  0  0
 10 11  1  6  0  0  0
 10 18  1  0  0  0  0
 12 13  1  6  0  0  0
 12 20  1  0  0  0  0
 14 15  1  1  0  0  0
 14 22  1  0  0  0  0
 16 17  1  1  0  0  0
 16 24  1  0  0  0  0
 18 19  1  6  0  0  0
 18 25  1  0  0  0  0
 20 21  1  1  0  0  0
 20 27  1  0  0  0  0
 22 23  1  6  0  0  0
 22 29  1  0  0  0  0
 24  2  1  6  0  0  0
 24 31  1  0  0  0  0
 25 26  1  0  0  0  0
 25 33  1  1  0  0  0
 27 28  1  6  0  0  0
 27 35  1  0  0  0  0
 29 30  1  0  0  0  0
 29 37  1  1  0  0  0
 31 32  1  1  0  0  0
 31 39  1  0  0  0  0
 33 34  1  0  0  0  0
 35 36  1  0  0  0  0
 35 41  1  6  0  0  0
 37 38  1  0  0  0  0
 39 40  1  6  0  0  0
 41 42  1  0  0  0  0
M  END
>  <CHROM.1>
-161.68814690,145.20538030,179.86738339,159.45234155,-154.87285897,68.07823800
61.33777387,147.72430757,-62.99013615,36.80243927,37.92009991,-13.52171850
-1.88970642,-0.39881325,-0.17446799

>  <Name>
3c44_lig

>  <RI>
0

>  <Rbt.Current_Directory>
/home/itssahil/PROJECTS/Mol_Feturizer/New_Systems/rnas/3c44

>  <Rbt.Executable>
rbdock ($Id: //depot/dev/client3/rdock/2013.1/src/exe/rbdock.cxx#4 $)

>  <Rbt.Library>
libRbt.so (2013.1, Build901 2013/11/27)

>  <Rbt.Parameter_File>
/export/apps/rDock/src/rDock_2013.1_src/data/scripts/dock_solv.prm

>  <Rbt.Receptor>
prm/pocket_docking_2.prm

>  <SCORE>
-13.7043

>  <SCORE.INTER>
-14.6353

>  <SCORE.INTER.CONST>
1

>  <SCORE.INTER.POLAR>
-1.54279

>  <SCORE.INTER.ROT>
9

>  <SCORE.INTER.SOLV>
18.1811

>  <SCORE.INTER.VDW>
-20.2746

>  <SCORE.INTER.norm>
-0.34846

>  <SCORE.INTRA>
0.856947

>  <SCORE.INTRA.DIHEDRAL>
0.202549

>  <SCORE.INTRA.DIHEDRAL.0>
14.8538

>  <SCORE.INTRA.POLAR>
0

>  <SCORE.INTRA.POLAR.0>
0

>  <SCORE.INTRA.REPUL>
0

>  <SCORE.INTRA.REPUL.0>
0

>  <SCORE.INTRA.SOLV>
-0.0762436

>  <SCORE.INTRA.SOLV.lig_0>
-100.951

>  <SCORE.INTRA.VDW>
0.793795

>  <SCORE.INTRA.VDW.0>
-5.71388

>  <SCORE.INTRA.norm>
0.0204035

>  <SCORE.RESTR>
0.0741044

>  <SCORE.RESTR.CAVITY>
0.0741044

>  <SCORE.RESTR.norm>
0.00176439

>  <SCORE.SYSTEM>
0

>  <SCORE.SYSTEM.CONST>
0

>  <SCORE.SYSTEM.DIHEDRAL>
0

>  <SCORE.SYSTEM.SOLV>
0

>  <SCORE.SYSTEM.norm>
0

>  <SCORE.heavy>
42

>  <SCORE.norm>
-0.326292

>  <RMSD>
1.166

$$$$
3c44_lig
 OpenBabel11021811463D
libRbt.so/2013.1/901 2013/11/27
 42 45  0  0  0  0  0  0  0  0999 V2000
   37.1715   34.1933  -12.7354 C   0  0  2  0  0  0  0  0  0  0  0  0
   36.2156   33.9435  -13.7774 O   0  0  0  0  0  0  0  0  0  0  0  0
   32.9372   36.1622  -15.0098 C   0  0  2  0  0  0  0  0  0  0  0  0
   31.6899   36.9025  -15.2552 N   0  0  0  0  0  0  0  0  0  0  0  0
   36.6463   37.7954  -12.9080 C   0  0  1  0  0  0  0  0  0  0  0  0
   38.6569   41.4894  -13.1460 C   0  0  1  0  0  0  0  0  0  0  0  0
   38.5532   33.7205  -13.1994 C   0  0  2  0  0  0  0  0  0  0  0  0
   38.9160   34.3410  -14.4817 N   0  0  0  0  0  0  0  0  0  0  0  0
   32.6369   34.7078  -14.6360 C   0  0  0  0  0  0  0  0  0  0  0  0
   36.7704   38.6668  -11.6572 C   0  0  2  0  0  0  0  0  0  0  0  0
   35.6378   39.5313  -11.5501 O   0  0  0  0  0  0  0  0  0  0  0  0
   38.3417   42.6093  -12.1489 C   0  0  2  0  0  0  0  0  0  0  0  0
   36.9707   43.0759  -12.3971 N   0  0  0  0  0  0  0  0  0  0  0  0
   38.5987   32.1979  -13.3504 C   0  0  1  0  0  0  0  0  0  0  0  0
   39.9423   31.7920  -13.6288 O   0  0  0  0  0  0  0  0  0  0  0  0
   33.9733   33.9631  -14.5490 C   0  0  2  0  0  0  0  0  0  0  0  0
   33.7298   32.5742  -14.1311 N   0  0  0  0  0  0  0  0  0  0  0  0
   37.9907   39.4997  -12.0443 C   0  0  2  0  0  0  0  0  0  0  0  0
   37.6521   40.4642  -13.0544 O   0  0  0  0  0  0  0  0  0  0  0  0
   39.3060   43.7904  -12.3197 C   0  0  1  0  0  0  0  0  0  0  0  0
   40.6146   43.4363  -11.8646 O   0  0  0  0  0  0  0  0  0  0  0  0
   38.1215   31.5335  -12.0577 C   0  0  2  0  0  0  0  0  0  0  0  0
   38.0609   30.1164  -12.2399 O   0  0  0  0  0  0  0  0  0  0  0  0
   34.9584   34.6100  -13.5673 C   0  0  2  0  0  0  0  0  0  0  0  0
   38.8808   38.4240  -12.6464 C   0  0  2  0  0  0  0  0  0  0  0  0
   38.0046   37.4188  -13.2007 O   0  0  0  0  0  0  0  0  0  0  0  0
   39.3948   44.2200  -13.7850 C   0  0  2  0  0  0  0  0  0  0  0  0
   38.1399   44.7828  -14.1784 O   0  0  0  0  0  0  0  0  0  0  0  0
   36.7354   32.0653  -11.6903 C   0  0  2  0  0  0  0  0  0  0  0  0
   36.7768   33.4979  -11.5381 O   0  0  0  0  0  0  0  0  0  0  0  0
   35.1172   36.1190  -13.7410 C   0  0  2  0  0  0  0  0  0  0  0  0
   35.8200   36.6568  -12.6089 O   0  0  0  0  0  0  0  0  0  0  0  0
   39.7752   37.8323  -11.5548 C   0  0  0  0  0  0  0  0  0  0  0  0
   40.7062   36.9276  -12.1527 O   0  0  0  0  0  0  0  0  0  0  0  0
   39.7245   42.9961  -14.6435 C   0  0  1  0  0  0  0  0  0  0  0  0
   38.6736   42.0279  -14.4777 O   0  0  0  0  0  0  0  0  0  0  0  0
   36.3219   31.4105  -10.3698 C   0  0  0  0  0  0  0  0  0  0  0  0
   36.0047   29.9918  -10.5878 O   0  0  0  0  0  0  0  0  0  0  0  0
   33.7514   36.8014  -13.8820 C   0  0  1  0  0  0  0  0  0  0  0  0
   33.9259   38.1977  -14.1324 O   0  0  0  0  0  0  0  0  0  0  0  0
   39.8522   43.3466  -16.1265 C   0  0  0  0  0  0  0  0  0  0  0  0
   41.1418   44.0124  -16.3570 N   0  0  0  0  0  0  0  0  0  0  0  0
  1  2  1  6  0  0  0
  1  7  1  0  0  0  0
  1 30  1  0  0  0  0
  3  4  1  1  0  0  0
  3  9  1  0  0  0  0
  3 39  1  0  0  0  0
  5 10  1  0  0  0  0
  5 26  1  0  0  0  0
  5 32  1  1  0  0  0
  6 12  1  0  0  0  0
  6 36  1  0  0  0  0
  6 19  1  6  0  0  0
  7  8  1  6  0  0  0
  7 14  1  0  0  0  0
  9 16  1  0  0  0  0
 10 11  1  6  0  0  0
 10 18  1  0  0  0  0
 12 13  1  6  0  0  0
 12 20  1  0  0  0  0
 14 15  1  1  0  0  0
 14 22  1  0  0  0  0
 16 17  1  1  0  0  0
 16 24  1  0  0  0  0
 18 19  1  6  0  0  0
 18 25  1  0  0  0  0
 20 21  1  6  0  0  0
 20 27  1  0  0  0  0
 22 23  1  6  0  0  0
 22 29  1  0  0  0  0
 24  2  1  6  0  0  0
 24 31  1  0  0  0  0
 25 26  1  0  0  0  0
 25 33  1  1  0  0  0
 27 28  1  6  0  0  0
 27 35  1  0  0  0  0
 29 30  1  0  0  0  0
 29 37  1  1  0  0  0
 31 32  1  1  0  0  0
 31 39  1  0  0  0  0
 33 34  1  0  0  0  0
 35 36  1  0  0  0  0
 35 41  1  6  0  0  0
 37 38  1  0  0  0  0
 39 40  1  6  0  0  0
 41 42  1  0  0  0  0
M  END
>  <CHROM.1>
-167.08926025,152.31670398,-87.46951480,163.24383172,-166.02856581,-173.81626701
-71.78744244,148.00854974,76.10706281,37.23015353,37.31417928,-13.15961997
-1.82896983,-0.24250778,-0.15299903

>  <Name>
3c44_lig

>  <RI>
0

>  <Rbt.Current_Directory>
/home/itssahil/PROJECTS/Mol_Feturizer/New_Systems/rnas/3c44

>  <Rbt.Executable>
rbdock ($Id: //depot/dev/client3/rdock/2013.1/src/exe/rbdock.cxx#4 $)

>  <Rbt.Library>
libRbt.so (2013.1, Build901 2013/11/27)

>  <Rbt.Parameter_File>
/export/apps/rDock/src/rDock_2013.1_src/data/scripts/dock_solv.prm

>  <Rbt.Receptor>
prm/pocket_docking_2.prm

>  <SCORE>
-16.9824

>  <SCORE.INTER>
-16.7903

>  <SCORE.INTER.CONST>
1

>  <SCORE.INTER.POLAR>
-0.938083

>  <SCORE.INTER.ROT>
9

>  <SCORE.INTER.SOLV>
20.3827

>  <SCORE.INTER.VDW>
-24.4608

>  <SCORE.INTER.norm>
-0.399768

>  <SCORE.INTRA>
-0.495095

>  <SCORE.INTRA.DIHEDRAL>
0.198663

>  <SCORE.INTRA.DIHEDRAL.0>
14.8538

>  <SCORE.INTRA.POLAR>
0

>  <SCORE.INTRA.POLAR.0>
0

>  <SCORE.INTRA.REPUL>
0

>  <SCORE.INTRA.REPUL.0>
0

>  <SCORE.INTRA.SOLV>
-3.35166

>  <SCORE.INTRA.SOLV.lig_0>
-100.951

>  <SCORE.INTRA.VDW>
1.0814

>  <SCORE.INTRA.VDW.0>
-5.71388

>  <SCORE.INTRA.norm>
-0.011788

>  <SCORE.RESTR>
0.302973

>  <SCORE.RESTR.CAVITY>
0.302973

>  <SCORE.RESTR.norm>
0.00721365

>  <SCORE.SYSTEM>
0

>  <SCORE.SYSTEM.CONST>
0

>  <SCORE.SYSTEM.DIHEDRAL>
0

>  <SCORE.SYSTEM.SOLV>
0

>  <SCORE.SYSTEM.norm>
0

>  <SCORE.heavy>
42

>  <SCORE.norm>
-0.404343

>  <RMSD>
1.279

$$$$
3c44_lig
 OpenBabel11021811463D
libRbt.so/2013.1/901 2013/11/27
 42 45  0  0  0  0  0  0  0  0999 V2000
   37.3769   34.0739  -12.7675 C   0  0  2  0  0  0  0  0  0  0  0  0
   36.4240   34.0007  -13.8391 O   0  0  0  0  0  0  0  0  0  0  0  0
   33.4678   36.7250  -14.8531 C   0  0  2  0  0  0  0  0  0  0  0  0
   32.3176   37.6236  -15.0362 N   0  0  0  0  0  0  0  0  0  0  0  0
   36.9258   37.7654  -12.2258 C   0  0  1  0  0  0  0  0  0  0  0  0
   38.7424   41.4522  -11.1930 C   0  0  1  0  0  0  0  0  0  0  0  0
   38.6933   33.4356  -13.2233 C   0  0  2  0  0  0  0  0  0  0  0  0
   39.1711   34.0528  -14.4690 N   0  0  0  0  0  0  0  0  0  0  0  0
   33.0036   35.2698  -14.7439 C   0  0  0  0  0  0  0  0  0  0  0  0
   37.3787   38.0491  -10.7928 C   0  0  2  0  0  0  0  0  0  0  0  0
   36.3145   38.6530  -10.0549 O   0  0  0  0  0  0  0  0  0  0  0  0
   38.0063   42.7762  -11.4227 C   0  0  2  0  0  0  0  0  0  0  0  0
   37.4342   42.7575  -12.7760 N   0  0  0  0  0  0  0  0  0  0  0  0
   38.5352   31.9287  -13.4409 C   0  0  1  0  0  0  0  0  0  0  0  0
   39.8180   31.3543  -13.7091 O   0  0  0  0  0  0  0  0  0  0  0  0
   34.2527   34.3827  -14.7128 C   0  0  2  0  0  0  0  0  0  0  0  0
   33.8482   32.9786  -14.5463 N   0  0  0  0  0  0  0  0  0  0  0  0
   38.4491   39.1039  -11.0657 C   0  0  2  0  0  0  0  0  0  0  0  0
   37.8503   40.3530  -11.4483 O   0  0  0  0  0  0  0  0  0  0  0  0
   38.9635   43.9696  -11.3056 C   0  0  1  0  0  0  0  0  0  0  0  0
   39.3616   44.1586   -9.9452 O   0  0  0  0  0  0  0  0  0  0  0  0
   37.9378   31.2833  -12.1891 C   0  0  2  0  0  0  0  0  0  0  0  0
   37.6898   29.8967  -12.4353 O   0  0  0  0  0  0  0  0  0  0  0  0
   35.2254   34.7546  -13.5866 C   0  0  2  0  0  0  0  0  0  0  0  0
   39.1474   38.4858  -12.2667 C   0  0  2  0  0  0  0  0  0  0  0  0
   38.1567   37.7052  -12.9699 O   0  0  0  0  0  0  0  0  0  0  0  0
   40.2150   43.7560  -12.1587 C   0  0  2  0  0  0  0  0  0  0  0  0
   39.8439   43.7885  -13.5398 O   0  0  0  0  0  0  0  0  0  0  0  0
   36.6277   31.9846  -11.8272 C   0  0  2  0  0  0  0  0  0  0  0  0
   36.8596   33.3905  -11.6107 O   0  0  0  0  0  0  0  0  0  0  0  0
   35.5406   36.2463  -13.4971 C   0  0  2  0  0  0  0  0  0  0  0  0
   36.2120   36.5171  -12.2559 O   0  0  0  0  0  0  0  0  0  0  0  0
   40.3027   37.6046  -11.7869 C   0  0  0  0  0  0  0  0  0  0  0  0
   41.0294   37.1278  -12.9216 O   0  0  0  0  0  0  0  0  0  0  0  0
   40.8347   42.4020  -11.8032 C   0  0  1  0  0  0  0  0  0  0  0  0
   39.8687   41.3729  -12.0810 O   0  0  0  0  0  0  0  0  0  0  0  0
   36.0940   31.3388  -10.5460 C   0  0  0  0  0  0  0  0  0  0  0  0
   36.9292   31.7262   -9.4000 O   0  0  0  0  0  0  0  0  0  0  0  0
   34.2599   37.0840  -13.5933 C   0  0  1  0  0  0  0  0  0  0  0  0
   34.5851   38.4758  -13.5973 O   0  0  0  0  0  0  0  0  0  0  0  0
   42.1085   42.1209  -12.6014 C   0  0  0  0  0  0  0  0  0  0  0  0
   41.7696   41.9992  -14.0261 N   0  0  0  0  0  0  0  0  0  0  0  0
  1  2  1  6  0  0  0
  1  7  1  0  0  0  0
  1 30  1  0  0  0  0
  3  4  1  1  0  0  0
  3  9  1  0  0  0  0
  3 39  1  0  0  0  0
  5 10  1  0  0  0  0
  5 26  1  0  0  0  0
  5 32  1  1  0  0  0
  6 12  1  0  0  0  0
  6 36  1  0  0  0  0
  6 19  1  6  0  0  0
  7  8  1  6  0  0  0
  7 14  1  0  0  0  0
  9 16  1  0  0  0  0
 10 11  1  1  0  0  0
 10 18  1  0  0  0  0
 12 13  1  6  0  0  0
 12 20  1  0  0  0  0
 14 15  1  1  0  0  0
 14 22  1  0  0  0  0
 16 17  1  1  0  0  0
 16 24  1  0  0  0  0
 18 19  1  6  0  0  0
 18 25  1  0  0  0  0
 20 21  1  1  0  0  0
 20 27  1  0  0  0  0
 22 23  1  6  0  0  0
 22 29  1  0  0  0  0
 24  2  1  6  0  0  0
 24 31  1  0  0  0  0
 25 26  1  0  0  0  0
 25 33  1  1  0  0  0
 27 28  1  6  0  0  0
 27 35  1  0  0  0  0
 29 30  1  0  0  0  0
 29 37  1  1  0  0  0
 31 32  1  1  0  0  0
 31 39  1  0  0  0  0
 33 34  1  0  0  0  0
 35 36  1  0  0  0  0
 35 41  1  6  0  0  0
 37 38  1  0  0  0  0
 39 40  1  6  0  0  0
 41 42  1  0  0  0  0
M  END
>  <CHROM.1>
-170.92688950,170.01280830,-172.02049890,156.99725421,-171.22774237,-174.66879161
71.39826045,161.43501531,-64.96536490,37.58335491,37.22333441,-12.55850940
-1.88174847,-0.27255218,0.00341783

>  <Name>
3c44_lig

>  <RI>
224

>  <Rbt.Current_Directory>
/home/itssahil/PROJECTS/Mol_Feturizer/New_Systems/rnas/3c44

>  <Rbt.Executable>
rbdock ($Id: //depot/dev/client3/rdock/2013.1/src/exe/rbdock.cxx#4 $)

>  <Rbt.Library>
libRbt.so (2013.1, Build901 2013/11/27)

>  <Rbt.Parameter_File>
/export/apps/rDock/src/rDock_2013.1_src/data/scripts/dock_solv.prm

>  <Rbt.Receptor>
prm/pocket_docking_3.prm

>  <SCORE>
-25.0198

>  <SCORE.INTER>
-21.1987

>  <SCORE.INTER.CONST>
1

>  <SCORE.INTER.POLAR>
-1.5149

>  <SCORE.INTER.ROT>
9

>  <SCORE.INTER.SOLV>
22.7472

>  <SCORE.INTER.VDW>
-26.2652

>  <SCORE.INTER.norm>
-0.504732

>  <SCORE.INTRA>
-3.82804

>  <SCORE.INTRA.DIHEDRAL>
-8.48886

>  <SCORE.INTRA.DIHEDRAL.0>
14.8538

>  <SCORE.INTRA.POLAR>
0

>  <SCORE.INTRA.POLAR.0>
0

>  <SCORE.INTRA.REPUL>
0.0143399

>  <SCORE.INTRA.REPUL.0>
0

>  <SCORE.INTRA.SOLV>
-2.8924

>  <SCORE.INTRA.SOLV.lig_0>
-100.951

>  <SCORE.INTRA.VDW>
1.79089

>  <SCORE.INTRA.VDW.0>
-5.71388

>  <SCORE.INTRA.norm>
-0.0911439

>  <SCORE.RESTR>
0.00696125

>  <SCORE.RESTR.CAVITY>
0.00696125

>  <SCORE.RESTR.norm>
0.000165744

>  <SCORE.SYSTEM>
0

>  <SCORE.SYSTEM.CONST>
0

>  <SCORE.SYSTEM.DIHEDRAL>
0

>  <SCORE.SYSTEM.SOLV>
0

>  <SCORE.SYSTEM.norm>
0

>  <SCORE.heavy>
42

>  <SCORE.norm>
-0.59571

>  <RMSD>
1.283

$$$$
3c44_lig
 OpenBabel11021811463D
libRbt.so/2013.1/901 2013/11/27
 42 45  0  0  0  0  0  0  0  0999 V2000
   36.9745   34.8866  -12.6667 C   0  0  2  0  0  0  0  0  0  0  0  0
   36.1845   34.7397  -13.8568 O   0  0  0  0  0  0  0  0  0  0  0  0
   32.7030   36.4932  -15.2688 C   0  0  2  0  0  0  0  0  0  0  0  0
   31.3819   37.0598  -15.5810 N   0  0  0  0  0  0  0  0  0  0  0  0
   36.1951   38.5386  -13.0509 C   0  0  1  0  0  0  0  0  0  0  0  0
   38.0260   42.2396  -13.6792 C   0  0  1  0  0  0  0  0  0  0  0  0
   38.4430   34.6062  -13.0026 C   0  0  2  0  0  0  0  0  0  0  0  0
   38.8986   35.4573  -14.1113 N   0  0  0  0  0  0  0  0  0  0  0  0
   32.5795   35.0160  -14.8843 C   0  0  0  0  0  0  0  0  0  0  0  0
   35.7358   39.7146  -12.1877 C   0  0  2  0  0  0  0  0  0  0  0  0
   34.6171   40.3607  -12.7982 O   0  0  0  0  0  0  0  0  0  0  0  0
   37.9751   42.9373  -15.0424 C   0  0  2  0  0  0  0  0  0  0  0  0
   38.0949   41.9136  -16.0896 N   0  0  0  0  0  0  0  0  0  0  0  0
   38.6574   33.1380  -13.3790 C   0  0  1  0  0  0  0  0  0  0  0  0
   40.0587   32.8897  -13.5282 O   0  0  0  0  0  0  0  0  0  0  0  0
   33.9967   34.4550  -14.7263 C   0  0  2  0  0  0  0  0  0  0  0  0
   33.9188   33.0507  -14.2964 N   0  0  0  0  0  0  0  0  0  0  0  0
   36.9585   40.6209  -12.3166 C   0  0  2  0  0  0  0  0  0  0  0  0
   37.0220   41.2110  -13.6254 O   0  0  0  0  0  0  0  0  0  0  0  0
   39.1268   43.9395  -15.1949 C   0  0  1  0  0  0  0  0  0  0  0  0
   38.9187   45.0720  -14.3469 O   0  0  0  0  0  0  0  0  0  0  0  0
   38.0919   32.2332  -12.2828 C   0  0  2  0  0  0  0  0  0  0  0  0
   38.1949   30.8656  -12.6880 O   0  0  0  0  0  0  0  0  0  0  0  0
   34.8424   35.2367  -13.7132 C   0  0  2  0  0  0  0  0  0  0  0  0
   38.0764   39.6016  -12.1635 C   0  0  2  0  0  0  0  0  0  0  0  0
   37.5695   38.3468  -12.6675 O   0  0  0  0  0  0  0  0  0  0  0  0
   40.4669   43.2958  -14.8350 C   0  0  2  0  0  0  0  0  0  0  0  0
   40.7829   42.3060  -15.8181 O   0  0  0  0  0  0  0  0  0  0  0  0
   36.6251   32.5872  -12.0328 C   0  0  2  0  0  0  0  0  0  0  0  0
   36.5053   33.9735  -11.6572 O   0  0  0  0  0  0  0  0  0  0  0  0
   34.8096   36.7516  -13.9050 C   0  0  2  0  0  0  0  0  0  0  0  0
   35.3832   37.3895  -12.7523 O   0  0  0  0  0  0  0  0  0  0  0  0
   38.4619   39.4856  -10.6873 C   0  0  0  0  0  0  0  0  0  0  0  0
   38.9821   40.7396  -10.2401 O   0  0  0  0  0  0  0  0  0  0  0  0
   40.3554   42.6560  -13.4486 C   0  0  1  0  0  0  0  0  0  0  0  0
   39.3242   41.6538  -13.4919 O   0  0  0  0  0  0  0  0  0  0  0  0
   36.1181   31.6921  -10.8992 C   0  0  0  0  0  0  0  0  0  0  0  0
   36.7482   32.0809   -9.6292 O   0  0  0  0  0  0  0  0  0  0  0  0
   33.3739   37.2463  -14.1172 C   0  0  1  0  0  0  0  0  0  0  0  0
   33.3749   38.6507  -14.3830 O   0  0  0  0  0  0  0  0  0  0  0  0
   41.6661   42.0059  -13.0039 C   0  0  0  0  0  0  0  0  0  0  0  0
   41.5246   41.5283  -11.6213 N   0  0  0  0  0  0  0  0  0  0  0  0
  1  2  1  6  0  0  0
  1  7  1  0  0  0  0
  1 30  1  0  0  0  0
  3  4  1  1  0  0  0
  3  9  1  0  0  0  0
  3 39  1  0  0  0  0
  5 10  1  0  0  0  0
  5 26  1  0  0  0  0
  5 32  1  1  0  0  0
  6 12  1  0  0  0  0
  6 36  1  0  0  0  0
  6 19  1  6  0  0  0
  7  8  1  6  0  0  0
  7 14  1  0  0  0  0
  9 16  1  0  0  0  0
 10 11  1  6  0  0  0
 10 18  1  0  0  0  0
 12 13  1  6  0  0  0
 12 20  1  0  0  0  0
 14 15  1  1  0  0  0
 14 22  1  0  0  0  0
 16 17  1  1  0  0  0
 16 24  1  0  0  0  0
 18 19  1  6  0  0  0
 18 25  1  0  0  0  0
 20 21  1  1  0  0  0
 20 27  1  0  0  0  0
 22 23  1  6  0  0  0
 22 29  1  0  0  0  0
 24  2  1  6  0  0  0
 24 31  1  0  0  0  0
 25 26  1  0  0  0  0
 25 33  1  1  0  0  0
 27 28  1  6  0  0  0
 27 35  1  0  0  0  0
 29 30  1  0  0  0  0
 29 37  1  1  0  0  0
 31 32  1  1  0  0  0
 31 39  1  0  0  0  0
 33 34  1  0  0  0  0
 35 36  1  0  0  0  0
 35 41  1  6  0  0  0
 37 38  1  0  0  0  0
 39 40  1  6  0  0  0
 41 42  1  0  0  0  0
M  END
>  <CHROM.1>
-168.32177491,128.78193593,-174.58317315,169.81291489,-154.12088218,-63.46908265
69.54829616,141.18254369,174.64146099,37.10928929,37.82358201,-13.30209339
-1.91632391,-0.31220356,-0.21304095

>  <Name>
3c44_lig

>  <RI>
224

>  <Rbt.Current_Directory>
/home/itssahil/PROJECTS/Mol_Feturizer/New_Systems/rnas/3c44

>  <Rbt.Executable>
rbdock ($Id: //depot/dev/client3/rdock/2013.1/src/exe/rbdock.cxx#4 $)

>  <Rbt.Library>
libRbt.so (2013.1, Build901 2013/11/27)

>  <Rbt.Parameter_File>
/export/apps/rDock/src/rDock_2013.1_src/data/scripts/dock_solv.prm

>  <Rbt.Receptor>
prm/pocket_docking_3.prm

>  <SCORE>
-15.275

>  <SCORE.INTER>
-16.7785

>  <SCORE.INTER.CONST>
1

>  <SCORE.INTER.POLAR>
-1.32296

>  <SCORE.INTER.ROT>
9

>  <SCORE.INTER.SOLV>
21.1868

>  <SCORE.INTER.VDW>
-23.4381

>  <SCORE.INTER.norm>
-0.399488

>  <SCORE.INTRA>
1.21852

>  <SCORE.INTRA.DIHEDRAL>
1.98372

>  <SCORE.INTRA.DIHEDRAL.0>
14.8538

>  <SCORE.INTRA.POLAR>
0

>  <SCORE.INTRA.POLAR.0>
0

>  <SCORE.INTRA.REPUL>
0

>  <SCORE.INTRA.REPUL.0>
0

>  <SCORE.INTRA.SOLV>
-0.693981

>  <SCORE.INTRA.SOLV.lig_0>
-100.951

>  <SCORE.INTRA.VDW>
0.573645

>  <SCORE.INTRA.VDW.0>
-5.71388

>  <SCORE.INTRA.norm>
0.0290123

>  <SCORE.RESTR>
0.284941

>  <SCORE.RESTR.CAVITY>
0.284941

>  <SCORE.RESTR.norm>
0.00678432

>  <SCORE.SYSTEM>
0

>  <SCORE.SYSTEM.CONST>
0

>  <SCORE.SYSTEM.DIHEDRAL>
0

>  <SCORE.SYSTEM.SOLV>
0

>  <SCORE.SYSTEM.norm>
0

>  <SCORE.heavy>
42

>  <SCORE.norm>
-0.363691

>  <RMSD>
1.347

$$$$
3c44_lig
 OpenBabel11021811463D
libRbt.so/2013.1/901 2013/11/27
 42 45  0  0  0  0  0  0  0  0999 V2000
   36.5647   35.0782  -13.0051 C   0  0  2  0  0  0  0  0  0  0  0  0
   35.8905   34.8030  -14.2427 O   0  0  0  0  0  0  0  0  0  0  0  0
   32.6804   36.6825  -16.0736 C   0  0  2  0  0  0  0  0  0  0  0  0
   31.4268   37.2837  -16.5540 N   0  0  0  0  0  0  0  0  0  0  0  0
   35.9729   38.3843  -13.2003 C   0  0  1  0  0  0  0  0  0  0  0  0
   38.3946   41.8277  -13.3057 C   0  0  1  0  0  0  0  0  0  0  0  0
   38.0772   35.0895  -13.2505 C   0  0  2  0  0  0  0  0  0  0  0  0
   38.4268   36.0304  -14.3244 N   0  0  0  0  0  0  0  0  0  0  0  0
   32.4929   35.1867  -15.8038 C   0  0  0  0  0  0  0  0  0  0  0  0
   35.5303   39.6369  -12.4425 C   0  0  2  0  0  0  0  0  0  0  0  0
   34.7049   40.4483  -13.2804 O   0  0  0  0  0  0  0  0  0  0  0  0
   37.7968   43.2347  -13.2020 C   0  0  2  0  0  0  0  0  0  0  0  0
   36.9826   43.4795  -14.4004 N   0  0  0  0  0  0  0  0  0  0  0  0
   38.5916   33.6959  -13.6200 C   0  0  1  0  0  0  0  0  0  0  0  0
   40.0208   33.7226  -13.6830 O   0  0  0  0  0  0  0  0  0  0  0  0
   33.8656   34.5990  -15.4601 C   0  0  2  0  0  0  0  0  0  0  0  0
   33.7163   33.1727  -15.1340 N   0  0  0  0  0  0  0  0  0  0  0  0
   36.8832   40.3244  -12.2701 C   0  0  2  0  0  0  0  0  0  0  0  0
   37.3423   40.8702  -13.5177 O   0  0  0  0  0  0  0  0  0  0  0  0
   38.8982   44.3000  -13.1248 C   0  0  1  0  0  0  0  0  0  0  0  0
   39.5651   44.2379  -11.8614 O   0  0  0  0  0  0  0  0  0  0  0  0
   38.1453   32.6814  -12.5655 C   0  0  2  0  0  0  0  0  0  0  0  0
   38.5329   31.3658  -12.9703 O   0  0  0  0  0  0  0  0  0  0  0  0
   34.5443   35.3079  -14.2813 C   0  0  2  0  0  0  0  0  0  0  0  0
   37.7506   39.1365  -11.8848 C   0  0  2  0  0  0  0  0  0  0  0  0
   37.1712   37.9740  -12.5160 O   0  0  0  0  0  0  0  0  0  0  0  0
   39.9311   44.1043  -14.2359 C   0  0  2  0  0  0  0  0  0  0  0  0
   39.3138   44.3849  -15.4954 O   0  0  0  0  0  0  0  0  0  0  0  0
   36.6256   32.7442  -12.4055 C   0  0  2  0  0  0  0  0  0  0  0  0
   36.2196   34.0755  -12.0312 O   0  0  0  0  0  0  0  0  0  0  0  0
   34.5472   36.8318  -14.3833 C   0  0  2  0  0  0  0  0  0  0  0  0
   34.9346   37.3925  -13.1182 O   0  0  0  0  0  0  0  0  0  0  0  0
   37.7628   38.9866  -10.3620 C   0  0  0  0  0  0  0  0  0  0  0  0
   36.4918   38.4952   -9.9305 O   0  0  0  0  0  0  0  0  0  0  0  0
   40.4355   42.6593  -14.1978 C   0  0  1  0  0  0  0  0  0  0  0  0
   39.3155   41.7811  -14.4072 O   0  0  0  0  0  0  0  0  0  0  0  0
   36.2326   31.7498  -11.3100 C   0  0  0  0  0  0  0  0  0  0  0  0
   34.7687   31.6440  -11.2262 O   0  0  0  0  0  0  0  0  0  0  0  0
   33.1644   37.3568  -14.7874 C   0  0  1  0  0  0  0  0  0  0  0  0
   33.2121   38.7745  -14.9637 O   0  0  0  0  0  0  0  0  0  0  0  0
   41.4920   42.3865  -15.2690 C   0  0  0  0  0  0  0  0  0  0  0  0
   41.9603   40.9991  -15.1445 N   0  0  0  0  0  0  0  0  0  0  0  0
  1  2  1  6  0  0  0
  1  7  1  0  0  0  0
  1 30  1  0  0  0  0
  3  4  1  1  0  0  0
  3  9  1  0  0  0  0
  3 39  1  0  0  0  0
  5 10  1  0  0  0  0
  5 26  1  0  0  0  0
  5 32  1  1  0  0  0
  6 12  1  0  0  0  0
  6 36  1  0  0  0  0
  6 19  1  6  0  0  0
  7  8  1  6  0  0  0
  7 14  1  0  0  0  0
  9 16  1  0  0  0  0
 10 11  1  6  0  0  0
 10 18  1  0  0  0  0
 12 13  1  6  0  0  0
 12 20  1  0  0  0  0
 14 15  1  1  0  0  0
 14 22  1  0  0  0  0
 16 17  1  1  0  0  0
 16 24  1  0  0  0  0
 18 19  1  6  0  0  0
 18 25  1  0  0  0  0
 20 21  1  1  0  0  0
 20 27  1  0  0  0  0
 22 23  1  6  0  0  0
 22 29  1  0  0  0  0
 24  2  1  6  0  0  0
 24 31  1  0  0  0  0
 25 26  1  0  0  0  0
 25 33  1  1  0  0  0
 27 28  1  6  0  0  0
 27 35  1  0  0  0  0
 29 30  1  0  0  0  0
 29 37  1  1  0  0  0
 31 32  1  1  0  0  0
 31 39  1  0  0  0  0
 33 34  1  0  0  0  0
 35 36  1  0  0  0  0
 35 41  1  6  0  0  0
 37 38  1  0  0  0  0
 39 40  1  6  0  0  0
 41 42  1  0  0  0  0
M  END
>  <CHROM.1>
-155.16019813,129.07846960,-92.93174920,163.55110342,-164.33883000,72.28265325
-173.01895649,130.35877244,178.14631050,36.82716915,37.91812750,-13.53133540
-1.94174011,-0.30342532,-0.15321231

>  <Name>
3c44_lig

>  <RI>
0

>  <Rbt.Current_Directory>
/home/itssahil/PROJECTS/Mol_Feturizer/New_Systems/rnas/3c44

>  <Rbt.Executable>
rbdock ($Id: //depot/dev/client3/rdock/2013.1/src/exe/rbdock.cxx#4 $)

>  <Rbt.Library>
libRbt.so (2013.1, Build901 2013/11/27)

>  <Rbt.Parameter_File>
/export/apps/rDock/src/rDock_2013.1_src/data/scripts/dock_solv.prm

>  <Rbt.Receptor>
prm/pocket_docking_2.prm

>  <SCORE>
-12.0129

>  <SCORE.INTER>
-16.8128

>  <SCORE.INTER.CONST>
1

>  <SCORE.INTER.POLAR>
-1.69316

>  <SCORE.INTER.ROT>
9

>  <SCORE.INTER.SOLV>
18.1913

>  <SCORE.INTER.VDW>
-21.2284

>  <SCORE.INTER.norm>
-0.400305

>  <SCORE.INTRA>
3.87257

>  <SCORE.INTRA.DIHEDRAL>
8.6836

>  <SCORE.INTRA.DIHEDRAL.0>
14.8538

>  <SCORE.INTRA.POLAR>
0

>  <SCORE.INTRA.POLAR.0>
0

>  <SCORE.INTRA.REPUL>
0

>  <SCORE.INTRA.REPUL.0>
0

>  <SCORE.INTRA.SOLV>
-2.01771

>  <SCORE.INTRA.SOLV.lig_0>
-100.951

>  <SCORE.INTRA.VDW>
0.539628

>  <SCORE.INTRA.VDW.0>
-5.71388

>  <SCORE.INTRA.norm>
0.092204

>  <SCORE.RESTR>
0.927369

>  <SCORE.RESTR.CAVITY>
0.927369

>  <SCORE.RESTR.norm>
0.0220802

>  <SCORE.SYSTEM>
0

>  <SCORE.SYSTEM.CONST>
0

>  <SCORE.SYSTEM.DIHEDRAL>
0

>  <SCORE.SYSTEM.SOLV>
0

>  <SCORE.SYSTEM.norm>
0

>  <SCORE.heavy>
42

>  <SCORE.norm>
-0.286021

>  <RMSD>
1.411

$$$$
3c44_lig
 OpenBabel11021811463D
libRbt.so/2013.1/901 2013/11/27
 42 45  0  0  0  0  0  0  0  0999 V2000
   37.3085   34.0030  -12.8612 C   0  0  2  0  0  0  0  0  0  0  0  0
   36.2438   33.6594  -13.7613 O   0  0  0  0  0  0  0  0  0  0  0  0
   33.0782   36.0948  -14.8739 C   0  0  2  0  0  0  0  0  0  0  0  0
   31.8714   36.9110  -15.0768 N   0  0  0  0  0  0  0  0  0  0  0  0
   36.6289   37.6468  -12.6858 C   0  0  1  0  0  0  0  0  0  0  0  0
   38.3548   41.4347  -12.5608 C   0  0  1  0  0  0  0  0  0  0  0  0
   38.6206   33.4136  -13.3895 C   0  0  2  0  0  0  0  0  0  0  0  0
   38.8683   33.8432  -14.7733 N   0  0  0  0  0  0  0  0  0  0  0  0
   32.7015   34.6492  -14.5366 C   0  0  0  0  0  0  0  0  0  0  0  0
   37.3272   38.0534  -11.3873 C   0  0  2  0  0  0  0  0  0  0  0  0
   36.3825   38.6337  -10.4859 O   0  0  0  0  0  0  0  0  0  0  0  0
   37.8827   42.6944  -11.8272 C   0  0  2  0  0  0  0  0  0  0  0  0
   36.4693   42.9198  -12.1599 N   0  0  0  0  0  0  0  0  0  0  0  0
   38.6051   31.8839  -13.3363 C   0  0  1  0  0  0  0  0  0  0  0  0
   39.9003   31.3871  -13.6869 O   0  0  0  0  0  0  0  0  0  0  0  0
   33.9946   33.8281  -14.4936 C   0  0  2  0  0  0  0  0  0  0  0  0
   33.6790   32.4434  -14.1114 N   0  0  0  0  0  0  0  0  0  0  0  0
   38.2400   39.1557  -11.9207 C   0  0  2  0  0  0  0  0  0  0  0  0
   37.4842   40.3350  -12.2415 O   0  0  0  0  0  0  0  0  0  0  0  0
   38.6952   43.9228  -12.2571 C   0  0  1  0  0  0  0  0  0  0  0  0
   40.0285   43.8431  -11.7464 O   0  0  0  0  0  0  0  0  0  0  0  0
   38.2434   31.4172  -11.9250 C   0  0  2  0  0  0  0  0  0  0  0  0
   38.1222   29.9925  -11.9064 O   0  0  0  0  0  0  0  0  0  0  0  0
   35.0299   34.3892  -13.5109 C   0  0  2  0  0  0  0  0  0  0  0  0
   38.7384   38.5068  -13.2023 C   0  0  2  0  0  0  0  0  0  0  0  0
   37.6936   37.6183  -13.6543 O   0  0  0  0  0  0  0  0  0  0  0  0
   38.7586   44.0339  -13.7814 C   0  0  2  0  0  0  0  0  0  0  0  0
   37.4513   44.3357  -14.2775 O   0  0  0  0  0  0  0  0  0  0  0  0
   36.9187   32.0524  -11.4995 C   0  0  2  0  0  0  0  0  0  0  0  0
   37.0182   33.4894  -11.5478 O   0  0  0  0  0  0  0  0  0  0  0  0
   35.2716   35.8914  -13.6442 C   0  0  2  0  0  0  0  0  0  0  0  0
   36.0211   36.3552  -12.5095 O   0  0  0  0  0  0  0  0  0  0  0  0
   40.0291   37.7365  -12.9153 C   0  0  0  0  0  0  0  0  0  0  0  0
   39.7400   36.6543  -12.0276 O   0  0  0  0  0  0  0  0  0  0  0  0
   39.2554   42.7052  -14.3571 C   0  0  1  0  0  0  0  0  0  0  0  0
   38.3305   41.6709  -13.9775 O   0  0  0  0  0  0  0  0  0  0  0  0
   36.6236   31.5961  -10.0684 C   0  0  0  0  0  0  0  0  0  0  0  0
   36.3538   30.1512  -10.0451 O   0  0  0  0  0  0  0  0  0  0  0  0
   33.9447   36.6535  -13.7424 C   0  0  1  0  0  0  0  0  0  0  0  0
   34.1945   38.0446  -13.9559 O   0  0  0  0  0  0  0  0  0  0  0  0
   39.3676   42.7408  -15.8818 C   0  0  0  0  0  0  0  0  0  0  0  0
   39.8841   41.4505  -16.3591 N   0  0  0  0  0  0  0  0  0  0  0  0
  1  2  1  6  0  0  0
  1  7  1  0  0  0  0
  1 30  1  0  0  0  0
  3  4  1  1  0  0  0
  3  9  1  0  0  0  0
  3 39  1  0  0  0  0
  5 10  1  0  0  0  0
  5 26  1  0  0  0  0
  5 32  1  1  0  0  0
  6 12  1  0  0  0  0
  6 36  1  0  0  0  0
  6 19  1  6  0  0  0
  7  8  1  6  0  0  0
  7 14  1  0  0  0  0
  9 16  1  0  0  0  0
 10 11  1  1  0  0  0
 10 18  1  0  0  0  0
 12 13  1  6  0  0  0
 12 20  1  0  0  0  0
 14 15  1  1  0  0  0
 14 22  1  0  0  0  0
 16 17  1  1  0  0  0
 16 24  1  0  0  0  0
 18 19  1  6  0  0  0
 18 25  1  0  0  0  0
 20 21  1  6  0  0  0
 20 27  1  0  0  0  0
 22 23  1  6  0  0  0
 22 29  1  0  0  0  0
 24  2  1  6  0  0  0
 24 31  1  0  0  0  0
 25 26  1  0  0  0  0
 25 33  1  1  0  0  0
 27 28  1  6  0  0  0
 27 35  1  0  0  0  0
 29 30  1  0  0  0  0
 29 37  1  1  0  0  0
 31 32  1  1  0  0  0
 31 39  1  0  0  0  0
 33 34  1  0  0  0  0
 35 36  1  0  0  0  0
 35 41  1  6  0  0  0
 37 38  1  0  0  0  0
 39 40  1  6  0  0  0
 41 42  1  0  0  0  0
M  END
>  <CHROM.1>
-167.83824649,176.95054664,-133.87582408,171.74439707,-176.30821196,65.06816006
-67.05614845,163.52704478,178.41373164,37.14565496,37.08538531,-13.04846755
-1.75106221,-0.27770312,-0.12496840

>  <Name>
3c44_lig

>  <RI>
224

>  <Rbt.Current_Directory>
/home/itssahil/PROJECTS/Mol_Feturizer/New_Systems/rnas/3c44

>  <Rbt.Executable>
rbdock ($Id: //depot/dev/client3/rdock/2013.1/src/exe/rbdock.cxx#4 $)

>  <Rbt.Library>
libRbt.so (2013.1, Build901 2013/11/27)

>  <Rbt.Parameter_File>
/export/apps/rDock/src/rDock_2013.1_src/data/scripts/dock_solv.prm

>  <Rbt.Receptor>
prm/pocket_docking_3.prm

>  <SCORE>
-23.753

>  <SCORE.INTER>
-21.5772

>  <SCORE.INTER.CONST>
1

>  <SCORE.INTER.POLAR>
-1.77234

>  <SCORE.INTER.ROT>
9

>  <SCORE.INTER.SOLV>
21.9186

>  <SCORE.INTER.VDW>
-25.3832

>  <SCORE.INTER.norm>
-0.513744

>  <SCORE.INTRA>
-2.1758

>  <SCORE.INTRA.DIHEDRAL>
-5.40777

>  <SCORE.INTRA.DIHEDRAL.0>
14.8538

>  <SCORE.INTRA.POLAR>
0

>  <SCORE.INTRA.POLAR.0>
0

>  <SCORE.INTRA.REPUL>
0.00508623

>  <SCORE.INTRA.REPUL.0>
0

>  <SCORE.INTRA.SOLV>
-4.19041

>  <SCORE.INTRA.SOLV.lig_0>
-100.951

>  <SCORE.INTRA.VDW>
2.59786

>  <SCORE.INTRA.VDW.0>
-5.71388

>  <SCORE.INTRA.norm>
-0.0518048

>  <SCORE.RESTR>
0

>  <SCORE.RESTR.CAVITY>
0

>  <SCORE.RESTR.norm>
0

>  <SCORE.SYSTEM>
0

>  <SCORE.SYSTEM.CONST>
0

>  <SCORE.SYSTEM.DIHEDRAL>
0

>  <SCORE.SYSTEM.SOLV>
0

>  <SCORE.SYSTEM.norm>
0

>  <SCORE.heavy>
42

>  <SCORE.norm>
-0.565548

>  <RMSD>
1.413

$$$$
3c44_lig
 OpenBabel11021811463D
libRbt.so/2013.1/901 2013/11/27
 42 45  0  0  0  0  0  0  0  0999 V2000
   37.2949   34.5522  -12.6474 C   0  0  2  0  0  0  0  0  0  0  0  0
   36.3568   34.3443  -13.7145 O   0  0  0  0  0  0  0  0  0  0  0  0
   33.0780   36.5994  -14.8778 C   0  0  2  0  0  0  0  0  0  0  0  0
   31.8276   37.3406  -15.1034 N   0  0  0  0  0  0  0  0  0  0  0  0
   36.7627   38.1181  -12.6238 C   0  0  1  0  0  0  0  0  0  0  0  0
   38.9899   41.5556  -12.9092 C   0  0  1  0  0  0  0  0  0  0  0  0
   38.6922   34.1392  -13.1215 C   0  0  2  0  0  0  0  0  0  0  0  0
   39.0550   34.8437  -14.3596 N   0  0  0  0  0  0  0  0  0  0  0  0
   32.7865   35.1229  -14.5947 C   0  0  0  0  0  0  0  0  0  0  0  0
   36.9030   38.9052  -11.3199 C   0  0  2  0  0  0  0  0  0  0  0  0
   35.7894   39.7858  -11.1589 O   0  0  0  0  0  0  0  0  0  0  0  0
   39.2084   42.6040  -11.8134 C   0  0  2  0  0  0  0  0  0  0  0  0
   37.9696   43.3798  -11.6633 N   0  0  0  0  0  0  0  0  0  0  0  0
   38.7746   32.6298  -13.3629 C   0  0  1  0  0  0  0  0  0  0  0  0
   40.1302   32.2716  -13.6481 O   0  0  0  0  0  0  0  0  0  0  0  0
   34.1289   34.3872  -14.5258 C   0  0  2  0  0  0  0  0  0  0  0  0
   33.8926   32.9741  -14.1937 N   0  0  0  0  0  0  0  0  0  0  0  0
   38.1421   39.7341  -11.6523 C   0  0  2  0  0  0  0  0  0  0  0  0
   37.8268   40.7681  -12.5992 O   0  0  0  0  0  0  0  0  0  0  0  0
   40.3506   43.5601  -12.1815 C   0  0  1  0  0  0  0  0  0  0  0  0
   41.6091   42.8849  -12.1107 O   0  0  0  0  0  0  0  0  0  0  0  0
   38.2984   31.8783  -12.1184 C   0  0  2  0  0  0  0  0  0  0  0  0
   38.2725   30.4738  -12.3859 O   0  0  0  0  0  0  0  0  0  0  0  0
   35.0889   34.9853  -13.4899 C   0  0  2  0  0  0  0  0  0  0  0  0
   39.0098   38.6796  -12.3210 C   0  0  2  0  0  0  0  0  0  0  0  0
   38.1131   37.7312  -12.9388 O   0  0  0  0  0  0  0  0  0  0  0  0
   40.1691   44.1144  -13.5955 C   0  0  2  0  0  0  0  0  0  0  0  0
   39.0258   44.9739  -13.6118 O   0  0  0  0  0  0  0  0  0  0  0  0
   36.8963   32.3560  -11.7373 C   0  0  2  0  0  0  0  0  0  0  0  0
   36.9029   33.7774  -11.4990 O   0  0  0  0  0  0  0  0  0  0  0  0
   35.2348   36.5034  -13.5728 C   0  0  2  0  0  0  0  0  0  0  0  0
   35.9110   36.9812  -12.3985 O   0  0  0  0  0  0  0  0  0  0  0  0
   39.8887   38.0002  -11.2686 C   0  0  0  0  0  0  0  0  0  0  0  0
   40.7455   37.0558  -11.9141 O   0  0  0  0  0  0  0  0  0  0  0  0
   39.9744   42.9470  -14.5667 C   0  0  1  0  0  0  0  0  0  0  0  0
   38.8000   42.2169  -14.1703 O   0  0  0  0  0  0  0  0  0  0  0  0
   36.4832   31.6137  -10.4637 C   0  0  0  0  0  0  0  0  0  0  0  0
   36.0966   30.2329  -10.7875 O   0  0  0  0  0  0  0  0  0  0  0  0
   33.8646   37.1797  -13.6998 C   0  0  1  0  0  0  0  0  0  0  0  0
   34.0288   38.5898  -13.8655 O   0  0  0  0  0  0  0  0  0  0  0  0
   39.8063   43.4180  -16.0118 C   0  0  0  0  0  0  0  0  0  0  0  0
   40.9855   43.0167  -16.7916 N   0  0  0  0  0  0  0  0  0  0  0  0
  1  2  1  6  0  0  0
  1  7  1  0  0  0  0
  1 30  1  0  0  0  0
  3  4  1  1  0  0  0
  3  9  1  0  0  0  0
  3 39  1  0  0  0  0
  5 10  1  0  0  0  0
  5 26  1  0  0  0  0
  5 32  1  1  0  0  0
  6 12  1  0  0  0  0
  6 36  1  0  0  0  0
  6 19  1  1  0  0  0
  7  8  1  6  0  0  0
  7 14  1  0  0  0  0
  9 16  1  0  0  0  0
 10 11  1  6  0  0  0
 10 18  1  0  0  0  0
 12 13  1  6  0  0  0
 12 20  1  0  0  0  0
 14 15  1  1  0  0  0
 14 22  1  0  0  0  0
 16 17  1  1  0  0  0
 16 24  1  0  0  0  0
 18 19  1  6  0  0  0
 18 25  1  0  0  0  0
 20 21  1  6  0  0  0
 20 27  1  0  0  0  0
 22 23  1  6  0  0  0
 22 29  1  0  0  0  0
 24  2  1  6  0  0  0
 24 31  1  0  0  0  0
 25 26  1  0  0  0  0
 25 33  1  1  0  0  0
 27 28  1  1  0  0  0
 27 35  1  0  0  0  0
 29 30  1  0  0  0  0
 29 37  1  1  0  0  0
 31 32  1  1  0  0  0
 31 39  1  0  0  0  0
 33 34  1  0  0  0  0
 35 36  1  0  0  0  0
 35 41  1  6  0  0  0
 37 38  1  0  0  0  0
 39 40  1  6  0  0  0
 41 42  1  0  0  0  0
M  END
>  <CHROM.1>
-166.21426322,154.36605552,-81.45861438,179.68904317,-166.55326569,-177.28270493
-76.34949323,146.18939175,111.34907224,37.47503103,37.53756196,-13.01668696
-1.87871929,-0.24121353,-0.14177710

>  <Name>
3c44_lig

>  <RI>
0

>  <Rbt.Current_Directory>
/home/itssahil/PROJECTS/Mol_Feturizer/New_Systems/rnas/3c44

>  <Rbt.Executable>
rbdock ($Id: //depot/dev/client3/rdock/2013.1/src/exe/rbdock.cxx#4 $)

>  <Rbt.Library>
libRbt.so (2013.1, Build901 2013/11/27)

>  <Rbt.Parameter_File>
/export/apps/rDock/src/rDock_2013.1_src/data/scripts/dock_solv.prm

>  <Rbt.Receptor>
prm/pocket_docking_2.prm

>  <SCORE>
-16.2896

>  <SCORE.INTER>
-17.0946

>  <SCORE.INTER.CONST>
1

>  <SCORE.INTER.POLAR>
-0.938083

>  <SCORE.INTER.ROT>
9

>  <SCORE.INTER.SOLV>
21.0206

>  <SCORE.INTER.VDW>
-24.8763

>  <SCORE.INTER.norm>
-0.407015

>  <SCORE.INTRA>
0.570978

>  <SCORE.INTRA.DIHEDRAL>
2.38931

>  <SCORE.INTRA.DIHEDRAL.0>
14.8538

>  <SCORE.INTRA.POLAR>
0

>  <SCORE.INTRA.POLAR.0>
0

>  <SCORE.INTRA.REPUL>
0

>  <SCORE.INTRA.REPUL.0>
0

>  <SCORE.INTRA.SOLV>
-3.77856

>  <SCORE.INTRA.SOLV.lig_0>
-100.951

>  <SCORE.INTRA.VDW>
1.2656

>  <SCORE.INTRA.VDW.0>
-5.71388

>  <SCORE.INTRA.norm>
0.0135947

>  <SCORE.RESTR>
0.234083

>  <SCORE.RESTR.CAVITY>
0.234083

>  <SCORE.RESTR.norm>
0.00557341

>  <SCORE.SYSTEM>
0

>  <SCORE.SYSTEM.CONST>
0

>  <SCORE.SYSTEM.DIHEDRAL>
0

>  <SCORE.SYSTEM.SOLV>
0

>  <SCORE.SYSTEM.norm>
0

>  <SCORE.heavy>
42

>  <SCORE.norm>
-0.387847

>  <RMSD>
1.428

$$$$
3c44_lig
 OpenBabel11021811463D
libRbt.so/2013.1/901 2013/11/27
 42 45  0  0  0  0  0  0  0  0999 V2000
   37.0276   34.3393  -12.5216 C   0  0  2  0  0  0  0  0  0  0  0  0
   36.2471   34.3189  -13.7266 O   0  0  0  0  0  0  0  0  0  0  0  0
   33.0641   36.5733  -15.1323 C   0  0  2  0  0  0  0  0  0  0  0  0
   31.8365   37.3198  -15.4478 N   0  0  0  0  0  0  0  0  0  0  0  0
   36.6411   38.1048  -12.7091 C   0  0  1  0  0  0  0  0  0  0  0  0
   38.9917   41.4893  -12.8725 C   0  0  1  0  0  0  0  0  0  0  0  0
   38.4449   33.8482  -12.8345 C   0  0  2  0  0  0  0  0  0  0  0  0
   39.0415   34.6308  -13.9265 N   0  0  0  0  0  0  0  0  0  0  0  0
   32.7415   35.1070  -14.8304 C   0  0  0  0  0  0  0  0  0  0  0  0
   36.8925   38.7991  -11.3698 C   0  0  2  0  0  0  0  0  0  0  0  0
   35.8309   39.7127  -11.0866 O   0  0  0  0  0  0  0  0  0  0  0  0
   39.2202   42.5018  -11.7453 C   0  0  2  0  0  0  0  0  0  0  0  0
   37.9875   43.2819  -11.5688 N   0  0  0  0  0  0  0  0  0  0  0  0
   38.4481   32.3672  -13.2215 C   0  0  1  0  0  0  0  0  0  0  0  0
   39.8001   31.9163  -13.3486 O   0  0  0  0  0  0  0  0  0  0  0  0
   34.0701   34.3613  -14.6661 C   0  0  2  0  0  0  0  0  0  0  0  0
   33.8005   32.9591  -14.3138 N   0  0  0  0  0  0  0  0  0  0  0  0
   38.1462   39.5960  -11.7248 C   0  0  2  0  0  0  0  0  0  0  0  0
   37.8232   40.7014  -12.5844 O   0  0  0  0  0  0  0  0  0  0  0  0
   40.3689   43.4601  -12.0862 C   0  0  1  0  0  0  0  0  0  0  0  0
   41.6224   42.7736  -12.0388 O   0  0  0  0  0  0  0  0  0  0  0  0
   37.7352   31.5476  -12.1443 C   0  0  2  0  0  0  0  0  0  0  0  0
   37.6435   30.1828  -12.5611 O   0  0  0  0  0  0  0  0  0  0  0  0
   34.9751   34.9766  -13.5914 C   0  0  2  0  0  0  0  0  0  0  0  0
   38.9251   38.5522  -12.5096 C   0  0  2  0  0  0  0  0  0  0  0  0
   37.9520   37.6836  -13.1294 O   0  0  0  0  0  0  0  0  0  0  0  0
   40.1890   44.0591  -13.4820 C   0  0  2  0  0  0  0  0  0  0  0  0
   39.0523   44.9273  -13.4694 O   0  0  0  0  0  0  0  0  0  0  0  0
   36.3320   32.1120  -11.9166 C   0  0  2  0  0  0  0  0  0  0  0  0
   36.4104   33.4981  -11.5294 O   0  0  0  0  0  0  0  0  0  0  0  0
   35.1412   36.4907  -13.7029 C   0  0  2  0  0  0  0  0  0  0  0  0
   35.7536   36.9918  -12.5035 O   0  0  0  0  0  0  0  0  0  0  0  0
   39.8322   37.7703  -11.5571 C   0  0  0  0  0  0  0  0  0  0  0  0
   40.7240   36.9572  -12.3229 O   0  0  0  0  0  0  0  0  0  0  0  0
   39.9837   42.9237  -14.4883 C   0  0  1  0  0  0  0  0  0  0  0  0
   38.8045   42.1906  -14.1122 O   0  0  0  0  0  0  0  0  0  0  0  0
   35.6777   31.2932  -10.8009 C   0  0  0  0  0  0  0  0  0  0  0  0
   36.3836   31.5164   -9.5309 O   0  0  0  0  0  0  0  0  0  0  0  0
   33.7876   37.1758  -13.9253 C   0  0  1  0  0  0  0  0  0  0  0  0
   33.9757   38.5799  -14.1158 O   0  0  0  0  0  0  0  0  0  0  0  0
   39.8166   43.4403  -15.9179 C   0  0  0  0  0  0  0  0  0  0  0  0
   41.0936   43.9997  -16.3825 N   0  0  0  0  0  0  0  0  0  0  0  0
  1  2  1  6  0  0  0
  1  7  1  0  0  0  0
  1 30  1  0  0  0  0
  3  4  1  1  0  0  0
  3  9  1  0  0  0  0
  3 39  1  0  0  0  0
  5 10  1  0  0  0  0
  5 26  1  0  0  0  0
  5 32  1  1  0  0  0
  6 12  1  0  0  0  0
  6 36  1  0  0  0  0
  6 19  1  1  0  0  0
  7  8  1  6  0  0  0
  7 14  1  0  0  0  0
  9 16  1  0  0  0  0
 10 11  1  6  0  0  0
 10 18  1  0  0  0  0
 12 13  1  6  0  0  0
 12 20  1  0  0  0  0
 14 15  1  1  0  0  0
 14 22  1  0  0  0  0
 16 17  1  1  0  0  0
 16 24  1  0  0  0  0
 18 19  1  6  0  0  0
 18 25  1  0  0  0  0
 20 21  1  6  0  0  0
 20 27  1  0  0  0  0
 22 23  1  6  0  0  0
 22 29  1  0  0  0  0
 24  2  1  6  0  0  0
 24 31  1  0  0  0  0
 25 26  1  0  0  0  0
 25 33  1  1  0  0  0
 27 28  1  1  0  0  0
 27 35  1  0  0  0  0
 29 30  1  0  0  0  0
 29 37  1  1  0  0  0
 31 32  1  1  0  0  0
 31 39  1  0  0  0  0
 33 34  1  0  0  0  0
 35 36  1  0  0  0  0
 35 41  1  6  0  0  0
 37 38  1  0  0  0  0
 39 40  1  6  0  0  0
 41 42  1  0  0  0  0
M  END
>  <CHROM.1>
-169.86395959,163.27675029,-84.40569177,177.41275308,-155.90004238,-170.07495070
66.28002609,145.47370096,68.82466246,37.35824265,37.48918765,-13.01478332
-1.91035479,-0.30911024,-0.17137316

>  <Name>
3c44_lig

>  <RI>
0

>  <Rbt.Current_Directory>
/home/itssahil/PROJECTS/Mol_Feturizer/New_Systems/rnas/3c44

>  <Rbt.Executable>
rbdock ($Id: //depot/dev/client3/rdock/2013.1/src/exe/rbdock.cxx#4 $)

>  <Rbt.Library>
libRbt.so (2013.1, Build901 2013/11/27)

>  <Rbt.Parameter_File>
/export/apps/rDock/src/rDock_2013.1_src/data/scripts/dock_solv.prm

>  <Rbt.Receptor>
prm/pocket_docking_2.prm

>  <SCORE>
-15.5704

>  <SCORE.INTER>
-14.8671

>  <SCORE.INTER.CONST>
1

>  <SCORE.INTER.POLAR>
-0.938083

>  <SCORE.INTER.ROT>
9

>  <SCORE.INTER.SOLV>
21.4847

>  <SCORE.INTER.VDW>
-23.546

>  <SCORE.INTER.norm>
-0.353978

>  <SCORE.INTRA>
-1.41117

>  <SCORE.INTRA.DIHEDRAL>
-2.34933

>  <SCORE.INTRA.DIHEDRAL.0>
14.8538

>  <SCORE.INTRA.POLAR>
0

>  <SCORE.INTRA.POLAR.0>
0

>  <SCORE.INTRA.REPUL>
0

>  <SCORE.INTRA.REPUL.0>
0

>  <SCORE.INTRA.SOLV>
-1.95365

>  <SCORE.INTRA.SOLV.lig_0>
-100.951

>  <SCORE.INTRA.VDW>
0.740316

>  <SCORE.INTRA.VDW.0>
-5.71388

>  <SCORE.INTRA.norm>
-0.0335993

>  <SCORE.RESTR>
0.707896

>  <SCORE.RESTR.CAVITY>
0.707896

>  <SCORE.RESTR.norm>
0.0168547

>  <SCORE.SYSTEM>
0

>  <SCORE.SYSTEM.CONST>
0

>  <SCORE.SYSTEM.DIHEDRAL>
0

>  <SCORE.SYSTEM.SOLV>
0

>  <SCORE.SYSTEM.norm>
0

>  <SCORE.heavy>
42

>  <SCORE.norm>
-0.370723

>  <RMSD>
1.444

$$$$
3c44_lig
 OpenBabel11021811463D
libRbt.so/2013.1/901 2013/11/27
 42 45  0  0  0  0  0  0  0  0999 V2000
   37.6111   34.9694  -12.9465 C   0  0  2  0  0  0  0  0  0  0  0  0
   36.7047   34.7936  -14.0463 O   0  0  0  0  0  0  0  0  0  0  0  0
   34.3187   37.7004  -15.7919 C   0  0  2  0  0  0  0  0  0  0  0  0
   33.3462   38.7095  -16.2389 N   0  0  0  0  0  0  0  0  0  0  0  0
   37.4617   38.7975  -12.9312 C   0  0  1  0  0  0  0  0  0  0  0  0
   39.2753   42.5337  -12.1932 C   0  0  1  0  0  0  0  0  0  0  0  0
   39.0455   34.7538  -13.4403 C   0  0  2  0  0  0  0  0  0  0  0  0
   39.3429   35.6284  -14.5839 N   0  0  0  0  0  0  0  0  0  0  0  0
   33.6219   36.3652  -15.5142 C   0  0  0  0  0  0  0  0  0  0  0  0
   37.8760   39.1735  -11.5079 C   0  0  2  0  0  0  0  0  0  0  0  0
   36.7900   39.8152  -10.8366 O   0  0  0  0  0  0  0  0  0  0  0  0
   38.5461   43.8476  -12.4928 C   0  0  2  0  0  0  0  0  0  0  0  0
   37.8888   43.7226  -13.8011 N   0  0  0  0  0  0  0  0  0  0  0  0
   39.2802   33.2979  -13.8504 C   0  0  1  0  0  0  0  0  0  0  0  0
   40.6665   33.1107  -14.1511 O   0  0  0  0  0  0  0  0  0  0  0  0
   34.7070   35.3277  -15.2072 C   0  0  2  0  0  0  0  0  0  0  0  0
   34.0720   34.0436  -14.8743 N   0  0  0  0  0  0  0  0  0  0  0  0
   38.9475   40.2165  -11.8192 C   0  0  2  0  0  0  0  0  0  0  0  0
   38.3523   41.4351  -12.2945 O   0  0  0  0  0  0  0  0  0  0  0  0
   39.5267   45.0266  -12.5412 C   0  0  1  0  0  0  0  0  0  0  0  0
   40.0133   45.3253  -11.2302 O   0  0  0  0  0  0  0  0  0  0  0  0
   38.8746   32.3649  -12.7079 C   0  0  2  0  0  0  0  0  0  0  0  0
   38.9912   31.0048  -13.1338 O   0  0  0  0  0  0  0  0  0  0  0  0
   35.6232   35.7419  -14.0489 C   0  0  2  0  0  0  0  0  0  0  0  0
   39.6798   39.5292  -12.9608 C   0  0  2  0  0  0  0  0  0  0  0  0
   38.7117   38.6992  -13.6385 O   0  0  0  0  0  0  0  0  0  0  0  0
   40.7180   44.7137  -13.4482 C   0  0  2  0  0  0  0  0  0  0  0  0
   40.2604   44.6333  -14.8010 O   0  0  0  0  0  0  0  0  0  0  0  0
   37.4295   32.6545  -12.2991 C   0  0  2  0  0  0  0  0  0  0  0  0
   37.2922   34.0327  -11.9006 O   0  0  0  0  0  0  0  0  0  0  0  0
   36.1617   37.1672  -14.1538 C   0  0  2  0  0  0  0  0  0  0  0  0
   36.7555   37.5449  -12.9010 O   0  0  0  0  0  0  0  0  0  0  0  0
   40.8270   38.6877  -12.3974 C   0  0  0  0  0  0  0  0  0  0  0  0
   40.2836   37.5719  -11.6882 O   0  0  0  0  0  0  0  0  0  0  0  0
   41.3386   43.3833  -13.0136 C   0  0  1  0  0  0  0  0  0  0  0  0
   40.3415   42.3540  -13.1389 O   0  0  0  0  0  0  0  0  0  0  0  0
   37.0856   31.7337  -11.1255 C   0  0  0  0  0  0  0  0  0  0  0  0
   36.7096   32.5329   -9.9505 O   0  0  0  0  0  0  0  0  0  0  0  0
   35.0435   38.1501  -14.5208 C   0  0  1  0  0  0  0  0  0  0  0  0
   35.5843   39.4608  -14.7012 O   0  0  0  0  0  0  0  0  0  0  0  0
   42.5546   43.0075  -13.8613 C   0  0  0  0  0  0  0  0  0  0  0  0
   42.1215   42.7525  -15.2422 N   0  0  0  0  0  0  0  0  0  0  0  0
  1  2  1  6  0  0  0
  1  7  1  0  0  0  0
  1 30  1  0  0  0  0
  3  4  1  1  0  0  0
  3  9  1  0  0  0  0
  3 39  1  0  0  0  0
  5 10  1  0  0  0  0
  5 26  1  0  0  0  0
  5 32  1  1  0  0  0
  6 12  1  0  0  0  0
  6 36  1  0  0  0  0
  6 19  1  6  0  0  0
  7  8  1  6  0  0  0
  7 14  1  0  0  0  0
  9 16  1  0  0  0  0
 10 11  1  1  0  0  0
 10 18  1  0  0  0  0
 12 13  1  6  0  0  0
 12 20  1  0  0  0  0
 14 15  1  1  0  0  0
 14 22  1  0  0  0  0
 16 17  1  1  0  0  0
 16 24  1  0  0  0  0
 18 19  1  6  0  0  0
 18 25  1  0  0  0  0
 20 21  1  1  0  0  0
 20 27  1  0  0  0  0
 22 23  1  6  0  0  0
 22 29  1  0  0  0  0
 24  2  1  6  0  0  0
 24 31  1  0  0  0  0
 25 26  1  0  0  0  0
 25 33  1  1  0  0  0
 27 28  1  6  0  0  0
 27 35  1  0  0  0  0
 29 30  1  0  0  0  0
 29 37  1  1  0  0  0
 31 32  1  1  0  0  0
 31 39  1  0  0  0  0
 33 34  1  0  0  0  0
 35 36  1  0  0  0  0
 35 41  1  6  0  0  0
 37 38  1  0  0  0  0
 39 40  1  6  0  0  0
 41 42  1  0  0  0  0
M  END
>  <CHROM.1>
-140.18841851,172.31802339,-171.01203238,162.00588865,-175.25134042,69.52290884
120.49060835,171.82984233,-65.67425696,38.10781345,38.23062222,-13.25957834
-1.87370829,-0.36150281,-0.10005246

>  <Name>
3c44_lig

>  <RI>
224

>  <Rbt.Current_Directory>
/home/itssahil/PROJECTS/Mol_Feturizer/New_Systems/rnas/3c44

>  <Rbt.Executable>
rbdock ($Id: //depot/dev/client3/rdock/2013.1/src/exe/rbdock.cxx#4 $)

>  <Rbt.Library>
libRbt.so (2013.1, Build901 2013/11/27)

>  <Rbt.Parameter_File>
/export/apps/rDock/src/rDock_2013.1_src/data/scripts/dock_solv.prm

>  <Rbt.Receptor>
prm/pocket_docking_3.prm

>  <SCORE>
-18.5197

>  <SCORE.INTER>
-21.1972

>  <SCORE.INTER.CONST>
1

>  <SCORE.INTER.POLAR>
-2.15462

>  <SCORE.INTER.ROT>
9

>  <SCORE.INTER.SOLV>
15.9552

>  <SCORE.INTER.VDW>
-21.8678

>  <SCORE.INTER.norm>
-0.504694

>  <SCORE.INTRA>
2.67749

>  <SCORE.INTRA.DIHEDRAL>
-0.819768

>  <SCORE.INTRA.DIHEDRAL.0>
14.8538

>  <SCORE.INTRA.POLAR>
0

>  <SCORE.INTRA.POLAR.0>
0

>  <SCORE.INTRA.REPUL>
0.0529769

>  <SCORE.INTRA.REPUL.0>
0

>  <SCORE.INTRA.SOLV>
-0.197286

>  <SCORE.INTRA.SOLV.lig_0>
-100.951

>  <SCORE.INTRA.VDW>
2.92113

>  <SCORE.INTRA.VDW.0>
-5.71388

>  <SCORE.INTRA.norm>
0.0637497

>  <SCORE.RESTR>
0

>  <SCORE.RESTR.CAVITY>
0

>  <SCORE.RESTR.norm>
0

>  <SCORE.SYSTEM>
0

>  <SCORE.SYSTEM.CONST>
0

>  <SCORE.SYSTEM.DIHEDRAL>
0

>  <SCORE.SYSTEM.SOLV>
0

>  <SCORE.SYSTEM.norm>
0

>  <SCORE.heavy>
42

>  <SCORE.norm>
-0.440945

>  <RMSD>
1.458

$$$$
3c44_lig
 OpenBabel11021811463D
libRbt.so/2013.1/901 2013/11/27
 42 45  0  0  0  0  0  0  0  0999 V2000
   36.3573   34.9100  -12.9596 C   0  0  2  0  0  0  0  0  0  0  0  0
   35.7608   34.8226  -14.2628 O   0  0  0  0  0  0  0  0  0  0  0  0
   32.4760   36.5428  -16.1176 C   0  0  2  0  0  0  0  0  0  0  0  0
   31.2004   37.0930  -16.6015 N   0  0  0  0  0  0  0  0  0  0  0  0
   35.6523   38.5600  -13.4039 C   0  0  1  0  0  0  0  0  0  0  0  0
   37.7380   42.1484  -13.6844 C   0  0  1  0  0  0  0  0  0  0  0  0
   37.8809   34.8249  -13.0995 C   0  0  2  0  0  0  0  0  0  0  0  0
   38.3788   35.8428  -14.0359 N   0  0  0  0  0  0  0  0  0  0  0  0
   32.3280   35.0574  -15.7758 C   0  0  0  0  0  0  0  0  0  0  0  0
   35.1664   39.7153  -12.5274 C   0  0  2  0  0  0  0  0  0  0  0  0
   34.1405   40.4438  -13.2045 O   0  0  0  0  0  0  0  0  0  0  0  0
   37.7403   43.0386  -14.9316 C   0  0  2  0  0  0  0  0  0  0  0  0
   37.7644   42.1714  -16.1175 N   0  0  0  0  0  0  0  0  0  0  0  0
   38.3187   33.4412  -13.5862 C   0  0  1  0  0  0  0  0  0  0  0  0
   39.7467   33.3589  -13.5493 O   0  0  0  0  0  0  0  0  0  0  0  0
   33.7199   34.5171  -15.4312 C   0  0  2  0  0  0  0  0  0  0  0  0
   33.6094   33.1045  -15.0370 N   0  0  0  0  0  0  0  0  0  0  0  0
   36.4350   40.5653  -12.4960 C   0  0  2  0  0  0  0  0  0  0  0  0
   36.6484   41.2125  -13.7612 O   0  0  0  0  0  0  0  0  0  0  0  0
   38.9741   43.9503  -14.9589 C   0  0  1  0  0  0  0  0  0  0  0  0
   38.8702   44.9611  -13.9527 O   0  0  0  0  0  0  0  0  0  0  0  0
   37.7209   32.3603  -12.6838 C   0  0  2  0  0  0  0  0  0  0  0  0
   38.0411   31.0678  -13.2054 O   0  0  0  0  0  0  0  0  0  0  0  0
   34.4027   35.2950  -14.2993 C   0  0  2  0  0  0  0  0  0  0  0  0
   37.4867   39.4860  -12.2930 C   0  0  2  0  0  0  0  0  0  0  0  0
   36.9742   38.2829  -12.9056 O   0  0  0  0  0  0  0  0  0  0  0  0
   40.2549   43.1490  -14.7202 C   0  0  2  0  0  0  0  0  0  0  0  0
   40.4779   42.2892  -15.8414 O   0  0  0  0  0  0  0  0  0  0  0  0
   36.2020   32.5284  -12.6208 C   0  0  2  0  0  0  0  0  0  0  0  0
   35.8671   33.8411  -12.1289 O   0  0  0  0  0  0  0  0  0  0  0  0
   34.3685   36.8122  -14.4714 C   0  0  2  0  0  0  0  0  0  0  0  0
   34.7652   37.4396  -13.2411 O   0  0  0  0  0  0  0  0  0  0  0  0
   37.7252   39.2818  -10.7954 C   0  0  0  0  0  0  0  0  0  0  0  0
   36.5767   38.6548  -10.2204 O   0  0  0  0  0  0  0  0  0  0  0  0
   40.0960   42.3264  -13.4388 C   0  0  1  0  0  0  0  0  0  0  0  0
   38.9812   41.4329  -13.6074 O   0  0  0  0  0  0  0  0  0  0  0  0
   35.6554   31.4588  -11.6719 C   0  0  0  0  0  0  0  0  0  0  0  0
   36.1764   31.6749  -10.3144 O   0  0  0  0  0  0  0  0  0  0  0  0
   32.9670   37.2869  -14.8732 C   0  0  1  0  0  0  0  0  0  0  0  0
   32.9786   38.6955  -15.1155 O   0  0  0  0  0  0  0  0  0  0  0  0
   41.3476   41.5091  -13.1165 C   0  0  0  0  0  0  0  0  0  0  0  0
   42.4804   42.4214  -12.9068 N   0  0  0  0  0  0  0  0  0  0  0  0
  1  2  1  6  0  0  0
  1  7  1  0  0  0  0
  1 30  1  0  0  0  0
  3  4  1  1  0  0  0
  3  9  1  0  0  0  0
  3 39  1  0  0  0  0
  5 10  1  0  0  0  0
  5 26  1  0  0  0  0
  5 32  1  1  0  0  0
  6 12  1  0  0  0  0
  6 36  1  0  0  0  0
  6 19  1  6  0  0  0
  7  8  1  6  0  0  0
  7 14  1  0  0  0  0
  9 16  1  0  0  0  0
 10 11  1  6  0  0  0
 10 18  1  0  0  0  0
 12 13  1  6  0  0  0
 12 20  1  0  0  0  0
 14 15  1  1  0  0  0
 14 22  1  0  0  0  0
 16 17  1  1  0  0  0
 16 24  1  0  0  0  0
 18 19  1  6  0  0  0
 18 25  1  0  0  0  0
 20 21  1  1  0  0  0
 20 27  1  0  0  0  0
 22 23  1  6  0  0  0
 22 29  1  0  0  0  0
 24  2  1  6  0  0  0
 24 31  1  0  0  0  0
 25 26  1  0  0  0  0
 25 33  1  1  0  0  0
 27 28  1  6  0  0  0
 27 35  1  0  0  0  0
 29 30  1  0  0  0  0
 29 37  1  1  0  0  0
 31 32  1  1  0  0  0
 31 39  1  0  0  0  0
 33 34  1  0  0  0  0
 35 36  1  0  0  0  0
 35 41  1  6  0  0  0
 37 38  1  0  0  0  0
 39 40  1  6  0  0  0
 41 42  1  0  0  0  0
M  END
>  <CHROM.1>
-161.97750053,133.97779286,-167.37784708,172.41264860,-151.66047052,70.34511033
63.32473820,137.74031018,61.37079180,36.69067296,37.79050989,-13.64081567
-1.95917990,-0.34049277,-0.19915834

>  <Name>
3c44_lig

>  <RI>
0

>  <Rbt.Current_Directory>
/home/itssahil/PROJECTS/Mol_Feturizer/New_Systems/rnas/3c44

>  <Rbt.Executable>
rbdock ($Id: //depot/dev/client3/rdock/2013.1/src/exe/rbdock.cxx#4 $)

>  <Rbt.Library>
libRbt.so (2013.1, Build901 2013/11/27)

>  <Rbt.Parameter_File>
/export/apps/rDock/src/rDock_2013.1_src/data/scripts/dock_solv.prm

>  <Rbt.Receptor>
prm/pocket_docking_2.prm

>  <SCORE>
-13.4834

>  <SCORE.INTER>
-16.0726

>  <SCORE.INTER.CONST>
1

>  <SCORE.INTER.POLAR>
-1.7339

>  <SCORE.INTER.ROT>
9

>  <SCORE.INTER.SOLV>
20.6664

>  <SCORE.INTER.VDW>
-21.4242

>  <SCORE.INTER.norm>
-0.382682

>  <SCORE.INTRA>
1.84652

>  <SCORE.INTRA.DIHEDRAL>
3.64237

>  <SCORE.INTRA.DIHEDRAL.0>
14.8538

>  <SCORE.INTRA.POLAR>
0

>  <SCORE.INTRA.POLAR.0>
0

>  <SCORE.INTRA.REPUL>
0

>  <SCORE.INTRA.REPUL.0>
0

>  <SCORE.INTRA.SOLV>
-1.24228

>  <SCORE.INTRA.SOLV.lig_0>
-100.951

>  <SCORE.INTRA.VDW>
0.646471

>  <SCORE.INTRA.VDW.0>
-5.71388

>  <SCORE.INTRA.norm>
0.0439648

>  <SCORE.RESTR>
0.742752

>  <SCORE.RESTR.CAVITY>
0.742752

>  <SCORE.RESTR.norm>
0.0176846

>  <SCORE.SYSTEM>
0

>  <SCORE.SYSTEM.CONST>
0

>  <SCORE.SYSTEM.DIHEDRAL>
0

>  <SCORE.SYSTEM.SOLV>
0

>  <SCORE.SYSTEM.norm>
0

>  <SCORE.heavy>
42

>  <SCORE.norm>
-0.321033

>  <RMSD>
1.462

$$$$
3c44_lig
 OpenBabel11021811463D
libRbt.so/2013.1/901 2013/11/27
 42 45  0  0  0  0  0  0  0  0999 V2000
   37.3701   34.5207  -12.8281 C   0  0  2  0  0  0  0  0  0  0  0  0
   36.5441   34.4564  -14.0009 O   0  0  0  0  0  0  0  0  0  0  0  0
   34.2337   37.5270  -15.5574 C   0  0  2  0  0  0  0  0  0  0  0  0
   33.2753   38.5709  -15.9522 N   0  0  0  0  0  0  0  0  0  0  0  0
   37.1205   38.2940  -12.3381 C   0  0  1  0  0  0  0  0  0  0  0  0
   38.9272   41.8665  -11.1215 C   0  0  1  0  0  0  0  0  0  0  0  0
   38.7642   33.9829  -13.1673 C   0  0  2  0  0  0  0  0  0  0  0  0
   39.3347   34.6955  -14.3195 N   0  0  0  0  0  0  0  0  0  0  0  0
   33.5496   36.1578  -15.5063 C   0  0  0  0  0  0  0  0  0  0  0  0
   37.5681   38.4133  -10.8805 C   0  0  2  0  0  0  0  0  0  0  0  0
   36.4901   38.8966  -10.0768 O   0  0  0  0  0  0  0  0  0  0  0  0
   38.2055   43.2085  -11.2829 C   0  0  2  0  0  0  0  0  0  0  0  0
   37.4756   43.1895  -12.5581 N   0  0  0  0  0  0  0  0  0  0  0  0
   38.7226   32.4844  -13.4771 C   0  0  1  0  0  0  0  0  0  0  0  0
   40.0594   31.9977  -13.6306 O   0  0  0  0  0  0  0  0  0  0  0  0
   34.6318   35.1051  -15.2443 C   0  0  2  0  0  0  0  0  0  0  0  0
   34.0037   33.7805  -15.1272 N   0  0  0  0  0  0  0  0  0  0  0  0
   38.6114   39.5198  -11.0219 C   0  0  2  0  0  0  0  0  0  0  0  0
   37.9812   40.7907  -11.2514 O   0  0  0  0  0  0  0  0  0  0  0  0
   39.2022   44.3748  -11.2994 C   0  0  1  0  0  0  0  0  0  0  0  0
   39.7649   44.5691   -9.9992 O   0  0  0  0  0  0  0  0  0  0  0  0
   38.0345   31.7368  -12.3335 C   0  0  2  0  0  0  0  0  0  0  0  0
   37.8994   30.3549  -12.6757 O   0  0  0  0  0  0  0  0  0  0  0  0
   35.4436   35.3822  -13.9728 C   0  0  2  0  0  0  0  0  0  0  0  0
   39.3234   39.0693  -12.2876 C   0  0  2  0  0  0  0  0  0  0  0  0
   38.3516   38.3551  -13.0819 O   0  0  0  0  0  0  0  0  0  0  0  0
   40.3366   44.1143  -12.2919 C   0  0  2  0  0  0  0  0  0  0  0  0
   39.8043   44.1404  -13.6194 O   0  0  0  0  0  0  0  0  0  0  0  0
   36.6528   32.3430  -12.0837 C   0  0  2  0  0  0  0  0  0  0  0  0
   36.7740   33.7449  -11.7718 O   0  0  0  0  0  0  0  0  0  0  0  0
   35.9542   36.8167  -13.8546 C   0  0  2  0  0  0  0  0  0  0  0  0
   36.4381   37.0411  -12.5204 O   0  0  0  0  0  0  0  0  0  0  0  0
   40.5010   38.1656  -11.9161 C   0  0  0  0  0  0  0  0  0  0  0  0
   41.2329   37.8410  -13.1001 O   0  0  0  0  0  0  0  0  0  0  0  0
   40.9569   42.7473  -11.9913 C   0  0  1  0  0  0  0  0  0  0  0  0
   39.9368   41.7434  -12.1359 O   0  0  0  0  0  0  0  0  0  0  0  0
   36.0248   31.5968  -10.9038 C   0  0  0  0  0  0  0  0  0  0  0  0
   36.7745   31.8796   -9.6713 O   0  0  0  0  0  0  0  0  0  0  0  0
   34.8450   37.8224  -14.1854 C   0  0  1  0  0  0  0  0  0  0  0  0
   35.3666   39.1528  -14.1560 O   0  0  0  0  0  0  0  0  0  0  0  0
   42.1181   42.4193  -12.9307 C   0  0  0  0  0  0  0  0  0  0  0  0
   41.5975   42.2124  -14.2893 N   0  0  0  0  0  0  0  0  0  0  0  0
  1  2  1  6  0  0  0
  1  7  1  0  0  0  0
  1 30  1  0  0  0  0
  3  4  1  1  0  0  0
  3  9  1  0  0  0  0
  3 39  1  0  0  0  0
  5 10  1  0  0  0  0
  5 26  1  0  0  0  0
  5 32  1  1  0  0  0
  6 12  1  0  0  0  0
  6 36  1  0  0  0  0
  6 19  1  6  0  0  0
  7  8  1  6  0  0  0
  7 14  1  0  0  0  0
  9 16  1  0  0  0  0
 10 11  1  1  0  0  0
 10 18  1  0  0  0  0
 12 13  1  6  0  0  0
 12 20  1  0  0  0  0
 14 15  1  1  0  0  0
 14 22  1  0  0  0  0
 16 17  1  1  0  0  0
 16 24  1  0  0  0  0
 18 19  1  6  0  0  0
 18 25  1  0  0  0  0
 20 21  1  1  0  0  0
 20 27  1  0  0  0  0
 22 23  1  6  0  0  0
 22 29  1  0  0  0  0
 24  2  1  6  0  0  0
 24 31  1  0  0  0  0
 25 26  1  0  0  0  0
 25 33  1  1  0  0  0
 27 28  1  6  0  0  0
 27 35  1  0  0  0  0
 29 30  1  0  0  0  0
 29 37  1  1  0  0  0
 31 32  1  1  0  0  0
 31 39  1  0  0  0  0
 33 34  1  0  0  0  0
 35 36  1  0  0  0  0
 35 41  1  6  0  0  0
 37 38  1  0  0  0  0
 39 40  1  6  0  0  0
 41 42  1  0  0  0  0
M  END
>  <CHROM.1>
-156.67488238,179.39461667,-176.39079420,168.56921968,-176.27944669,-175.03456817
66.86992862,171.50649836,-68.24268966,37.78679212,37.72485646,-12.75042193
-1.88776450,-0.43979294,-0.03805083

>  <Name>
3c44_lig

>  <RI>
224

>  <Rbt.Current_Directory>
/home/itssahil/PROJECTS/Mol_Feturizer/New_Systems/rnas/3c44

>  <Rbt.Executable>
rbdock ($Id: //depot/dev/client3/rdock/2013.1/src/exe/rbdock.cxx#4 $)

>  <Rbt.Library>
libRbt.so (2013.1, Build901 2013/11/27)

>  <Rbt.Parameter_File>
/export/apps/rDock/src/rDock_2013.1_src/data/scripts/dock_solv.prm

>  <Rbt.Receptor>
prm/pocket_docking_3.prm

>  <SCORE>
-24.5073

>  <SCORE.INTER>
-21.5217

>  <SCORE.INTER.CONST>
1

>  <SCORE.INTER.POLAR>
-2.13484

>  <SCORE.INTER.ROT>
9

>  <SCORE.INTER.SOLV>
17.1514

>  <SCORE.INTER.VDW>
-22.5488

>  <SCORE.INTER.norm>
-0.512421

>  <SCORE.INTRA>
-2.9856

>  <SCORE.INTRA.DIHEDRAL>
-10.4318

>  <SCORE.INTRA.DIHEDRAL.0>
14.8538

>  <SCORE.INTRA.POLAR>
0

>  <SCORE.INTRA.POLAR.0>
0

>  <SCORE.INTRA.REPUL>
0.0211161

>  <SCORE.INTRA.REPUL.0>
0

>  <SCORE.INTRA.SOLV>
-2.34589

>  <SCORE.INTRA.SOLV.lig_0>
-100.951

>  <SCORE.INTRA.VDW>
3.29766

>  <SCORE.INTRA.VDW.0>
-5.71388

>  <SCORE.INTRA.norm>
-0.0710857

>  <SCORE.RESTR>
0

>  <SCORE.RESTR.CAVITY>
0

>  <SCORE.RESTR.norm>
0

>  <SCORE.SYSTEM>
0

>  <SCORE.SYSTEM.CONST>
0

>  <SCORE.SYSTEM.DIHEDRAL>
0

>  <SCORE.SYSTEM.SOLV>
0

>  <SCORE.SYSTEM.norm>
0

>  <SCORE.heavy>
42

>  <SCORE.norm>
-0.583506

>  <RMSD>
1.463

$$$$
3c44_lig
 OpenBabel11021811463D
libRbt.so/2013.1/901 2013/11/27
 42 45  0  0  0  0  0  0  0  0999 V2000
   36.4912   34.8441  -12.9870 C   0  0  2  0  0  0  0  0  0  0  0  0
   35.7735   34.5545  -14.1965 O   0  0  0  0  0  0  0  0  0  0  0  0
   32.3264   36.1935  -15.8154 C   0  0  2  0  0  0  0  0  0  0  0  0
   31.0045   36.7007  -16.2143 N   0  0  0  0  0  0  0  0  0  0  0  0
   35.7098   38.0780  -13.1321 C   0  0  1  0  0  0  0  0  0  0  0  0
   37.9079   41.6655  -13.6439 C   0  0  1  0  0  0  0  0  0  0  0  0
   37.9921   34.6688  -13.2410 C   0  0  2  0  0  0  0  0  0  0  0  0
   38.4286   35.4827  -14.3846 N   0  0  0  0  0  0  0  0  0  0  0  0
   32.2673   34.6874  -15.5445 C   0  0  0  0  0  0  0  0  0  0  0  0
   35.1135   39.4328  -12.7473 C   0  0  2  0  0  0  0  0  0  0  0  0
   34.4185   39.9948  -13.8621 O   0  0  0  0  0  0  0  0  0  0  0  0
   37.2321   42.8883  -14.2730 C   0  0  2  0  0  0  0  0  0  0  0  0
   36.8619   42.5512  -15.6544 N   0  0  0  0  0  0  0  0  0  0  0  0
   38.3441   33.2031  -13.5074 C   0  0  1  0  0  0  0  0  0  0  0  0
   39.7665   33.0659  -13.5803 O   0  0  0  0  0  0  0  0  0  0  0  0
   33.6984   34.2028  -15.2892 C   0  0  2  0  0  0  0  0  0  0  0  0
   33.6756   32.7687  -14.9639 N   0  0  0  0  0  0  0  0  0  0  0  0
   36.3998   40.2242  -12.5192 C   0  0  2  0  0  0  0  0  0  0  0  0
   37.0464   40.5203  -13.7679 O   0  0  0  0  0  0  0  0  0  0  0  0
   38.1795   44.0949  -14.2940 C   0  0  1  0  0  0  0  0  0  0  0  0
   38.3791   44.5961  -12.9697 O   0  0  0  0  0  0  0  0  0  0  0  0
   37.8032   32.3256  -12.3771 C   0  0  2  0  0  0  0  0  0  0  0  0
   38.0373   30.9486  -12.6838 O   0  0  0  0  0  0  0  0  0  0  0  0
   34.3937   34.9579  -14.1495 C   0  0  2  0  0  0  0  0  0  0  0  0
   37.2218   39.2015  -11.7508 C   0  0  2  0  0  0  0  0  0  0  0  0
   36.7872   37.8978  -12.1945 O   0  0  0  0  0  0  0  0  0  0  0  0
   39.5382   43.7167  -14.8862 C   0  0  2  0  0  0  0  0  0  0  0  0
   39.3716   43.4271  -16.2771 O   0  0  0  0  0  0  0  0  0  0  0  0
   36.3020   32.5688  -12.2138 C   0  0  2  0  0  0  0  0  0  0  0  0
   36.0510   33.9610  -11.9385 O   0  0  0  0  0  0  0  0  0  0  0  0
   34.2773   36.4780  -14.2414 C   0  0  2  0  0  0  0  0  0  0  0  0
   34.6991   37.0634  -12.9988 O   0  0  0  0  0  0  0  0  0  0  0  0
   36.9831   39.3793  -10.2498 C   0  0  0  0  0  0  0  0  0  0  0  0
   36.4990   38.1499   -9.7047 O   0  0  0  0  0  0  0  0  0  0  0  0
   40.0801   42.4911  -14.1459 C   0  0  1  0  0  0  0  0  0  0  0  0
   39.1497   41.4076  -14.3184 O   0  0  0  0  0  0  0  0  0  0  0  0
   35.8168   31.7083  -11.0443 C   0  0  0  0  0  0  0  0  0  0  0  0
   35.7697   30.2944  -11.4438 O   0  0  0  0  0  0  0  0  0  0  0  0
   32.8372   36.8995  -14.5568 C   0  0  1  0  0  0  0  0  0  0  0  0
   32.7686   38.3170  -14.7264 O   0  0  0  0  0  0  0  0  0  0  0  0
   41.4518   42.0601  -14.6666 C   0  0  0  0  0  0  0  0  0  0  0  0
   41.7541   40.7093  -14.1729 N   0  0  0  0  0  0  0  0  0  0  0  0
  1  2  1  6  0  0  0
  1  7  1  0  0  0  0
  1 30  1  0  0  0  0
  3  4  1  1  0  0  0
  3  9  1  0  0  0  0
  3 39  1  0  0  0  0
  5 10  1  0  0  0  0
  5 26  1  0  0  0  0
  5 32  1  1  0  0  0
  6 12  1  0  0  0  0
  6 36  1  0  0  0  0
  6 19  1  6  0  0  0
  7  8  1  6  0  0  0
  7 14  1  0  0  0  0
  9 16  1  0  0  0  0
 10 11  1  6  0  0  0
 10 18  1  0  0  0  0
 12 13  1  6  0  0  0
 12 20  1  0  0  0  0
 14 15  1  1  0  0  0
 14 22  1  0  0  0  0
 16 17  1  1  0  0  0
 16 24  1  0  0  0  0
 18 19  1  6  0  0  0
 18 25  1  0  0  0  0
 20 21  1  1  0  0  0
 20 27  1  0  0  0  0
 22 23  1  6  0  0  0
 22 29  1  0  0  0  0
 24  2  1  6  0  0  0
 24 31  1  0  0  0  0
 25 26  1  0  0  0  0
 25 33  1  1  0  0  0
 27 28  1  6  0  0  0
 27 35  1  0  0  0  0
 29 30  1  0  0  0  0
 29 37  1  1  0  0  0
 31 32  1  1  0  0  0
 31 39  1  0  0  0  0
 33 34  1  0  0  0  0
 35 36  1  0  0  0  0
 35 41  1  6  0  0  0
 37 38  1  0  0  0  0
 39 40  1  6  0  0  0
 41 42  1  0  0  0  0
M  END
>  <CHROM.1>
-167.63465604,112.45891992,-103.30681342,156.85918799,-162.75225559,122.53219536
-73.47342031,127.01348317,-165.58162680,36.55221083,37.56719942,-13.58151568
-1.88945276,-0.28214744,-0.19059533

>  <Name>
3c44_lig

>  <RI>
0

>  <Rbt.Current_Directory>
/home/itssahil/PROJECTS/Mol_Feturizer/New_Systems/rnas/3c44

>  <Rbt.Executable>
rbdock ($Id: //depot/dev/client3/rdock/2013.1/src/exe/rbdock.cxx#4 $)

>  <Rbt.Library>
libRbt.so (2013.1, Build901 2013/11/27)

>  <Rbt.Parameter_File>
/export/apps/rDock/src/rDock_2013.1_src/data/scripts/dock_solv.prm

>  <Rbt.Receptor>
prm/pocket_docking_2.prm

>  <SCORE>
-8.45643

>  <SCORE.INTER>
-17.6151

>  <SCORE.INTER.CONST>
1

>  <SCORE.INTER.POLAR>
-1.8636

>  <SCORE.INTER.ROT>
9

>  <SCORE.INTER.SOLV>
19.776

>  <SCORE.INTER.VDW>
-21.7234

>  <SCORE.INTER.norm>
-0.419408

>  <SCORE.INTRA>
8.1874

>  <SCORE.INTRA.DIHEDRAL>
16.012

>  <SCORE.INTRA.DIHEDRAL.0>
14.8538

>  <SCORE.INTRA.POLAR>
0

>  <SCORE.INTRA.POLAR.0>
0

>  <SCORE.INTRA.REPUL>
0

>  <SCORE.INTRA.REPUL.0>
0

>  <SCORE.INTRA.SOLV>
-2.69414

>  <SCORE.INTRA.SOLV.lig_0>
-100.951

>  <SCORE.INTRA.VDW>
1.52846

>  <SCORE.INTRA.VDW.0>
-5.71388

>  <SCORE.INTRA.norm>
0.194938

>  <SCORE.RESTR>
0.971286

>  <SCORE.RESTR.CAVITY>
0.971286

>  <SCORE.RESTR.norm>
0.0231259

>  <SCORE.SYSTEM>
0

>  <SCORE.SYSTEM.CONST>
0

>  <SCORE.SYSTEM.DIHEDRAL>
0

>  <SCORE.SYSTEM.SOLV>
0

>  <SCORE.SYSTEM.norm>
0

>  <SCORE.heavy>
42

>  <SCORE.norm>
-0.201344

>  <RMSD>
1.470

$$$$
3c44_lig
 OpenBabel11021811463D
libRbt.so/2013.1/901 2013/11/27
 42 45  0  0  0  0  0  0  0  0999 V2000
   36.2606   35.0396  -12.9318 C   0  0  2  0  0  0  0  0  0  0  0  0
   35.6831   34.7096  -14.2044 O   0  0  0  0  0  0  0  0  0  0  0  0
   32.7356   36.6274  -16.4007 C   0  0  2  0  0  0  0  0  0  0  0  0
   31.5571   37.2524  -17.0206 N   0  0  0  0  0  0  0  0  0  0  0  0
   35.6676   38.4508  -13.3099 C   0  0  1  0  0  0  0  0  0  0  0  0
   37.7175   42.1463  -13.2818 C   0  0  1  0  0  0  0  0  0  0  0  0
   37.7784   35.1765  -13.0909 C   0  0  2  0  0  0  0  0  0  0  0  0
   38.1094   36.1435  -14.1475 N   0  0  0  0  0  0  0  0  0  0  0  0
   32.4678   35.1497  -16.1007 C   0  0  0  0  0  0  0  0  0  0  0  0
   35.1172   39.6323  -12.5098 C   0  0  2  0  0  0  0  0  0  0  0  0
   34.2234   40.3972  -13.3209 O   0  0  0  0  0  0  0  0  0  0  0  0
   37.9332   42.9474  -14.5701 C   0  0  2  0  0  0  0  0  0  0  0  0
   38.3763   42.0208  -15.6209 N   0  0  0  0  0  0  0  0  0  0  0  0
   38.4269   33.8306  -13.4244 C   0  0  1  0  0  0  0  0  0  0  0  0
   39.8502   33.9759  -13.4063 O   0  0  0  0  0  0  0  0  0  0  0  0
   33.7784   34.5292  -15.6055 C   0  0  2  0  0  0  0  0  0  0  0  0
   33.5457   33.1217  -15.2481 N   0  0  0  0  0  0  0  0  0  0  0  0
   36.4048   40.4292  -12.3098 C   0  0  2  0  0  0  0  0  0  0  0  0
   36.8136   41.0567  -13.5363 O   0  0  0  0  0  0  0  0  0  0  0  0
   39.0053   44.0278  -14.3774 C   0  0  1  0  0  0  0  0  0  0  0  0
   38.5147   45.0731  -13.5338 O   0  0  0  0  0  0  0  0  0  0  0  0
   38.0070   32.7822  -12.3924 C   0  0  2  0  0  0  0  0  0  0  0  0
   38.5248   31.5035  -12.7687 O   0  0  0  0  0  0  0  0  0  0  0  0
   34.3665   35.2578  -14.3907 C   0  0  2  0  0  0  0  0  0  0  0  0
   37.3732   39.3090  -11.9642 C   0  0  2  0  0  0  0  0  0  0  0  0
   36.8976   38.1232  -12.6373 O   0  0  0  0  0  0  0  0  0  0  0  0
   40.2700   43.4411  -13.7480 C   0  0  2  0  0  0  0  0  0  0  0  0
   40.8855   42.5553  -14.6874 O   0  0  0  0  0  0  0  0  0  0  0  0
   36.4806   32.7186  -12.3193 C   0  0  2  0  0  0  0  0  0  0  0  0
   35.9450   34.0114  -11.9746 O   0  0  0  0  0  0  0  0  0  0  0  0
   34.4356   36.7759  -14.5427 C   0  0  2  0  0  0  0  0  0  0  0  0
   34.7202   37.3694  -13.2654 O   0  0  0  0  0  0  0  0  0  0  0  0
   37.3991   39.1073  -10.4476 C   0  0  0  0  0  0  0  0  0  0  0  0
   36.5374   38.0193  -10.1059 O   0  0  0  0  0  0  0  0  0  0  0  0
   39.8869   42.6858  -12.4726 C   0  0  1  0  0  0  0  0  0  0  0  0
   38.9776   41.6287  -12.8260 O   0  0  0  0  0  0  0  0  0  0  0  0
   36.1097   31.6947  -11.2434 C   0  0  0  0  0  0  0  0  0  0  0  0
   34.6592   31.4561  -11.2527 O   0  0  0  0  0  0  0  0  0  0  0  0
   33.1185   37.3320  -15.0967 C   0  0  1  0  0  0  0  0  0  0  0  0
   33.2353   38.7397  -15.3148 O   0  0  0  0  0  0  0  0  0  0  0  0
   41.1038   42.0842  -11.7685 C   0  0  0  0  0  0  0  0  0  0  0  0
   41.6693   41.0176  -12.6064 N   0  0  0  0  0  0  0  0  0  0  0  0
  1  2  1  6  0  0  0
  1  7  1  0  0  0  0
  1 30  1  0  0  0  0
  3  4  1  1  0  0  0
  3  9  1  0  0  0  0
  3 39  1  0  0  0  0
  5 10  1  0  0  0  0
  5 26  1  0  0  0  0
  5 32  1  1  0  0  0
  6 12  1  0  0  0  0
  6 36  1  0  0  0  0
  6 19  1  6  0  0  0
  7  8  1  6  0  0  0
  7 14  1  0  0  0  0
  9 16  1  0  0  0  0
 10 11  1  6  0  0  0
 10 18  1  0  0  0  0
 12 13  1  6  0  0  0
 12 20  1  0  0  0  0
 14 15  1  1  0  0  0
 14 22  1  0  0  0  0
 16 17  1  1  0  0  0
 16 24  1  0  0  0  0
 18 19  1  6  0  0  0
 18 25  1  0  0  0  0
 20 21  1  1  0  0  0
 20 27  1  0  0  0  0
 22 23  1  6  0  0  0
 22 29  1  0  0  0  0
 24  2  1  6  0  0  0
 24 31  1  0  0  0  0
 25 26  1  0  0  0  0
 25 33  1  1  0  0  0
 27 28  1  6  0  0  0
 27 35  1  0  0  0  0
 29 30  1  0  0  0  0
 29 37  1  1  0  0  0
 31 32  1  1  0  0  0
 31 39  1  0  0  0  0
 33 34  1  0  0  0  0
 35 36  1  0  0  0  0
 35 41  1  6  0  0  0
 37 38  1  0  0  0  0
 39 40  1  6  0  0  0
 41 42  1  0  0  0  0
M  END
>  <CHROM.1>
-147.24644738,132.15922725,-169.82266734,160.14372899,-166.01975294,97.88032670
-172.37233942,138.48319211,-67.26104013,36.69029804,37.83082328,-13.44691287
-2.00205891,-0.45265377,-0.18657510

>  <Name>
3c44_lig

>  <RI>
224

>  <Rbt.Current_Directory>
/home/itssahil/PROJECTS/Mol_Feturizer/New_Systems/rnas/3c44

>  <Rbt.Executable>
rbdock ($Id: //depot/dev/client3/rdock/2013.1/src/exe/rbdock.cxx#4 $)

>  <Rbt.Library>
libRbt.so (2013.1, Build901 2013/11/27)

>  <Rbt.Parameter_File>
/export/apps/rDock/src/rDock_2013.1_src/data/scripts/dock_solv.prm

>  <Rbt.Receptor>
prm/pocket_docking_3.prm

>  <SCORE>
-14.4347

>  <SCORE.INTER>
-19.4152

>  <SCORE.INTER.CONST>
1

>  <SCORE.INTER.POLAR>
-2.17073

>  <SCORE.INTER.ROT>
9

>  <SCORE.INTER.SOLV>
16.162

>  <SCORE.INTER.VDW>
-20.695

>  <SCORE.INTER.norm>
-0.462266

>  <SCORE.INTRA>
4.98048

>  <SCORE.INTRA.DIHEDRAL>
8.79113

>  <SCORE.INTRA.DIHEDRAL.0>
14.8538

>  <SCORE.INTRA.POLAR>
0

>  <SCORE.INTRA.POLAR.0>
0

>  <SCORE.INTRA.REPUL>
0

>  <SCORE.INTRA.REPUL.0>
0

>  <SCORE.INTRA.SOLV>
-0.0625265

>  <SCORE.INTRA.SOLV.lig_0>
-100.951

>  <SCORE.INTRA.VDW>
0.616175

>  <SCORE.INTRA.VDW.0>
-5.71388

>  <SCORE.INTRA.norm>
0.118583

>  <SCORE.RESTR>
0

>  <SCORE.RESTR.CAVITY>
0

>  <SCORE.RESTR.norm>
0

>  <SCORE.SYSTEM>
0

>  <SCORE.SYSTEM.CONST>
0

>  <SCORE.SYSTEM.DIHEDRAL>
0

>  <SCORE.SYSTEM.SOLV>
0

>  <SCORE.SYSTEM.norm>
0

>  <SCORE.heavy>
42

>  <SCORE.norm>
-0.343684

>  <RMSD>
1.513

$$$$
3c44_lig
 OpenBabel11021811463D
libRbt.so/2013.1/901 2013/11/27
 42 45  0  0  0  0  0  0  0  0999 V2000
   36.3931   34.9306  -13.0803 C   0  0  2  0  0  0  0  0  0  0  0  0
   35.8205   34.6856  -14.3741 O   0  0  0  0  0  0  0  0  0  0  0  0
   32.8184   36.6221  -16.4782 C   0  0  2  0  0  0  0  0  0  0  0  0
   31.6243   37.2513  -17.0631 N   0  0  0  0  0  0  0  0  0  0  0  0
   35.8715   38.3632  -13.4220 C   0  0  1  0  0  0  0  0  0  0  0  0
   38.2625   41.7883  -13.3816 C   0  0  1  0  0  0  0  0  0  0  0  0
   37.9201   34.8621  -13.1873 C   0  0  2  0  0  0  0  0  0  0  0  0
   38.4144   35.7791  -14.2245 N   0  0  0  0  0  0  0  0  0  0  0  0
   32.5617   35.1399  -16.1912 C   0  0  0  0  0  0  0  0  0  0  0  0
   35.4084   39.5443  -12.5677 C   0  0  2  0  0  0  0  0  0  0  0  0
   34.5299   40.3794  -13.3244 O   0  0  0  0  0  0  0  0  0  0  0  0
   38.5507   42.5915  -14.6541 C   0  0  2  0  0  0  0  0  0  0  0  0
   38.7277   41.6471  -15.7658 N   0  0  0  0  0  0  0  0  0  0  0  0
   38.3925   33.4421  -13.5095 C   0  0  1  0  0  0  0  0  0  0  0  0
   39.8210   33.3942  -13.4426 O   0  0  0  0  0  0  0  0  0  0  0  0
   33.8850   34.5172  -15.7339 C   0  0  2  0  0  0  0  0  0  0  0  0
   33.6644   33.1045  -15.3894 N   0  0  0  0  0  0  0  0  0  0  0  0
   36.7409   40.2683  -12.3861 C   0  0  2  0  0  0  0  0  0  0  0  0
   37.1424   40.9140  -13.6055 O   0  0  0  0  0  0  0  0  0  0  0  0
   39.8293   43.4263  -14.5045 C   0  0  1  0  0  0  0  0  0  0  0  0
   39.6163   44.5064  -13.5918 O   0  0  0  0  0  0  0  0  0  0  0  0
   37.8001   32.4565  -12.5006 C   0  0  2  0  0  0  0  0  0  0  0  0
   38.1537   31.1209  -12.8693 O   0  0  0  0  0  0  0  0  0  0  0  0
   34.4984   35.2320  -14.5235 C   0  0  2  0  0  0  0  0  0  0  0  0
   37.6608   39.0899  -12.1079 C   0  0  2  0  0  0  0  0  0  0  0  0
   37.1037   37.9523  -12.8012 O   0  0  0  0  0  0  0  0  0  0  0  0
   40.9878   42.5699  -13.9906 C   0  0  2  0  0  0  0  0  0  0  0  0
   41.3488   41.6256  -15.0026 O   0  0  0  0  0  0  0  0  0  0  0  0
   36.2775   32.5990  -12.4792 C   0  0  2  0  0  0  0  0  0  0  0  0
   35.9093   33.9511  -12.1424 O   0  0  0  0  0  0  0  0  0  0  0  0
   34.5598   36.7522  -14.6575 C   0  0  2  0  0  0  0  0  0  0  0  0
   34.8716   37.3302  -13.3794 O   0  0  0  0  0  0  0  0  0  0  0  0
   37.7245   38.8377  -10.6000 C   0  0  0  0  0  0  0  0  0  0  0  0
   36.7020   37.9068  -10.2382 O   0  0  0  0  0  0  0  0  0  0  0  0
   40.5445   41.8453  -12.7169 C   0  0  1  0  0  0  0  0  0  0  0  0
   39.4191   41.0087  -13.0379 O   0  0  0  0  0  0  0  0  0  0  0  0
   35.7354   31.6309  -11.4245 C   0  0  0  0  0  0  0  0  0  0  0  0
   36.3943   31.8717  -10.1326 O   0  0  0  0  0  0  0  0  0  0  0  0
   33.2288   37.3111  -15.1743 C   0  0  1  0  0  0  0  0  0  0  0  0
   33.3366   38.7219  -15.3769 O   0  0  0  0  0  0  0  0  0  0  0  0
   41.6582   40.9802  -12.1255 C   0  0  0  0  0  0  0  0  0  0  0  0
   42.8384   41.8181  -11.8716 N   0  0  0  0  0  0  0  0  0  0  0  0
  1  2  1  6  0  0  0
  1  7  1  0  0  0  0
  1 30  1  0  0  0  0
  3  4  1  1  0  0  0
  3  9  1  0  0  0  0
  3 39  1  0  0  0  0
  5 10  1  0  0  0  0
  5 26  1  0  0  0  0
  5 32  1  1  0  0  0
  6 12  1  0  0  0  0
  6 36  1  0  0  0  0
  6 19  1  6  0  0  0
  7  8  1  6  0  0  0
  7 14  1  0  0  0  0
  9 16  1  0  0  0  0
 10 11  1  6  0  0  0
 10 18  1  0  0  0  0
 12 13  1  6  0  0  0
 12 20  1  0  0  0  0
 14 15  1  1  0  0  0
 14 22  1  0  0  0  0
 16 17  1  1  0  0  0
 16 24  1  0  0  0  0
 18 19  1  6  0  0  0
 18 25  1  0  0  0  0
 20 21  1  1  0  0  0
 20 27  1  0  0  0  0
 22 23  1  6  0  0  0
 22 29  1  0  0  0  0
 24  2  1  6  0  0  0
 24 31  1  0  0  0  0
 25 26  1  0  0  0  0
 25 33  1  1  0  0  0
 27 28  1  6  0  0  0
 27 35  1  0  0  0  0
 29 30  1  0  0  0  0
 29 37  1  1  0  0  0
 31 32  1  1  0  0  0
 31 39  1  0  0  0  0
 33 34  1  0  0  0  0
 35 36  1  0  0  0  0
 35 41  1  6  0  0  0
 37 38  1  0  0  0  0
 39 40  1  6  0  0  0
 41 42  1  0  0  0  0
M  END
>  <CHROM.1>
-156.57518244,134.80838205,-172.84763065,169.71447871,-162.38918463,90.59793003
54.26460588,135.09253390,56.42888728,36.98345765,37.60348831,-13.52098696
-2.09061723,-0.44779557,-0.22776459

>  <Name>
3c44_lig

>  <RI>
224

>  <Rbt.Current_Directory>
/home/itssahil/PROJECTS/Mol_Feturizer/New_Systems/rnas/3c44

>  <Rbt.Executable>
rbdock ($Id: //depot/dev/client3/rdock/2013.1/src/exe/rbdock.cxx#4 $)

>  <Rbt.Library>
libRbt.so (2013.1, Build901 2013/11/27)

>  <Rbt.Parameter_File>
/export/apps/rDock/src/rDock_2013.1_src/data/scripts/dock_solv.prm

>  <Rbt.Receptor>
prm/pocket_docking_3.prm

>  <SCORE>
-14.3974

>  <SCORE.INTER>
-17.3462

>  <SCORE.INTER.CONST>
1

>  <SCORE.INTER.POLAR>
-2.09308

>  <SCORE.INTER.ROT>
9

>  <SCORE.INTER.SOLV>
19.6112

>  <SCORE.INTER.VDW>
-20.7243

>  <SCORE.INTER.norm>
-0.413005

>  <SCORE.INTRA>
2.92042

>  <SCORE.INTRA.DIHEDRAL>
5.12216

>  <SCORE.INTRA.DIHEDRAL.0>
14.8538

>  <SCORE.INTRA.POLAR>
0

>  <SCORE.INTRA.POLAR.0>
0

>  <SCORE.INTRA.REPUL>
0

>  <SCORE.INTRA.REPUL.0>
0

>  <SCORE.INTRA.SOLV>
-1.27976

>  <SCORE.INTRA.SOLV.lig_0>
-100.951

>  <SCORE.INTRA.VDW>
0.999227

>  <SCORE.INTRA.VDW.0>
-5.71388

>  <SCORE.INTRA.norm>
0.0695339

>  <SCORE.RESTR>
0.0283891

>  <SCORE.RESTR.CAVITY>
0.0283891

>  <SCORE.RESTR.norm>
0.000675931

>  <SCORE.SYSTEM>
0

>  <SCORE.SYSTEM.CONST>
0

>  <SCORE.SYSTEM.DIHEDRAL>
0

>  <SCORE.SYSTEM.SOLV>
0

>  <SCORE.SYSTEM.norm>
0

>  <SCORE.heavy>
42

>  <SCORE.norm>
-0.342795

>  <RMSD>
1.522

$$$$
3c44_lig
 OpenBabel11021811463D
libRbt.so/2013.1/901 2013/11/27
 42 45  0  0  0  0  0  0  0  0999 V2000
   37.3716   34.5159  -12.7775 C   0  0  2  0  0  0  0  0  0  0  0  0
   36.4452   34.2446  -13.8405 O   0  0  0  0  0  0  0  0  0  0  0  0
   32.8339   35.8927  -15.0370 C   0  0  2  0  0  0  0  0  0  0  0  0
   31.4891   36.4461  -15.2588 N   0  0  0  0  0  0  0  0  0  0  0  0
   36.1064   38.3717  -13.3609 C   0  0  1  0  0  0  0  0  0  0  0  0
   37.0930   42.5064  -13.0656 C   0  0  1  0  0  0  0  0  0  0  0  0
   38.7992   34.2978  -13.2895 C   0  0  2  0  0  0  0  0  0  0  0  0
   39.0505   35.0971  -14.4973 N   0  0  0  0  0  0  0  0  0  0  0  0
   32.7463   34.4735  -14.4682 C   0  0  0  0  0  0  0  0  0  0  0  0
   37.0104   39.0033  -12.3012 C   0  0  2  0  0  0  0  0  0  0  0  0
   36.2202   39.5063  -11.2222 O   0  0  0  0  0  0  0  0  0  0  0  0
   37.8190   42.9776  -14.3300 C   0  0  2  0  0  0  0  0  0  0  0  0
   38.8146   41.9610  -14.6964 N   0  0  0  0  0  0  0  0  0  0  0  0
   39.0587   32.8223  -13.6037 C   0  0  1  0  0  0  0  0  0  0  0  0
   40.4419   32.6449  -13.9240 O   0  0  0  0  0  0  0  0  0  0  0  0
   34.1683   33.9056  -14.4102 C   0  0  2  0  0  0  0  0  0  0  0  0
   34.1319   32.5632  -13.8106 N   0  0  0  0  0  0  0  0  0  0  0  0
   37.5589   40.1830  -13.1014 C   0  0  2  0  0  0  0  0  0  0  0  0
   36.5512   41.1915  -13.2815 O   0  0  0  0  0  0  0  0  0  0  0  0
   38.5377   44.3119  -14.0911 C   0  0  1  0  0  0  0  0  0  0  0  0
   37.5887   45.3735  -13.9594 O   0  0  0  0  0  0  0  0  0  0  0  0
   38.7005   31.9624  -12.3903 C   0  0  2  0  0  0  0  0  0  0  0  0
   38.8393   30.5788  -12.7242 O   0  0  0  0  0  0  0  0  0  0  0  0
   35.1328   34.7827  -13.6022 C   0  0  2  0  0  0  0  0  0  0  0  0
   37.8446   39.5060  -14.4326 C   0  0  2  0  0  0  0  0  0  0  0  0
   36.8972   38.4240  -14.5628 O   0  0  0  0  0  0  0  0  0  0  0  0
   39.3923   44.2567  -12.8237 C   0  0  2  0  0  0  0  0  0  0  0  0
   40.4789   43.3515  -13.0381 O   0  0  0  0  0  0  0  0  0  0  0  0
   37.2586   32.2481  -11.9680 C   0  0  2  0  0  0  0  0  0  0  0  0
   37.0981   33.6474  -11.6622 O   0  0  0  0  0  0  0  0  0  0  0  0
   35.0880   36.2651  -13.9673 C   0  0  2  0  0  0  0  0  0  0  0  0
   35.7977   37.0216  -12.9729 O   0  0  0  0  0  0  0  0  0  0  0  0
   39.2822   38.9818  -14.4398 C   0  0  0  0  0  0  0  0  0  0  0  0
   39.5991   38.5045  -15.7493 O   0  0  0  0  0  0  0  0  0  0  0  0
   38.5224   43.7811  -11.6571 C   0  0  1  0  0  0  0  0  0  0  0  0
   38.0204   42.4697  -11.9693 O   0  0  0  0  0  0  0  0  0  0  0  0
   36.9626   31.4037  -10.7259 C   0  0  0  0  0  0  0  0  0  0  0  0
   35.5134   31.3512  -10.4851 O   0  0  0  0  0  0  0  0  0  0  0  0
   33.6408   36.7613  -14.0686 C   0  0  1  0  0  0  0  0  0  0  0  0
   33.6202   38.1246  -14.4975 O   0  0  0  0  0  0  0  0  0  0  0  0
   39.3008   43.7188  -10.3423 C   0  0  0  0  0  0  0  0  0  0  0  0
   40.2510   42.5990  -10.3954 N   0  0  0  0  0  0  0  0  0  0  0  0
  1  2  1  6  0  0  0
  1  7  1  0  0  0  0
  1 30  1  0  0  0  0
  3  4  1  1  0  0  0
  3  9  1  0  0  0  0
  3 39  1  0  0  0  0
  5 10  1  0  0  0  0
  5 26  1  0  0  0  0
  5 32  1  1  0  0  0
  6 12  1  0  0  0  0
  6 36  1  0  0  0  0
  6 19  1  6  0  0  0
  7  8  1  6  0  0  0
  7 14  1  0  0  0  0
  9 16  1  0  0  0  0
 10 11  1  1  0  0  0
 10 18  1  0  0  0  0
 12 13  1  1  0  0  0
 12 20  1  0  0  0  0
 14 15  1  1  0  0  0
 14 22  1  0  0  0  0
 16 17  1  1  0  0  0
 16 24  1  0  0  0  0
 18 19  1  6  0  0  0
 18 25  1  0  0  0  0
 20 21  1  1  0  0  0
 20 27  1  0  0  0  0
 22 23  1  6  0  0  0
 22 29  1  0  0  0  0
 24  2  1  6  0  0  0
 24 31  1  0  0  0  0
 25 26  1  0  0  0  0
 25 33  1  1  0  0  0
 27 28  1  6  0  0  0
 27 35  1  0  0  0  0
 29 30  1  0  0  0  0
 29 37  1  1  0  0  0
 31 32  1  1  0  0  0
 31 39  1  0  0  0  0
 33 34  1  0  0  0  0
 35 36  1  0  0  0  0
 35 41  1  1  0  0  0
 37 38  1  0  0  0  0
 39 40  1  6  0  0  0
 41 42  1  0  0  0  0
M  END
>  <CHROM.1>
-162.86084248,-172.74619967,81.27689381,136.71669778,-154.25269916,-172.52729176
-164.84668588,165.65418111,-71.11790757,37.09096119,37.65985544,-13.24741364
-1.77766027,-0.28150534,-0.05259554

>  <Name>
3c44_lig

>  <RI>
0

>  <Rbt.Current_Directory>
/home/itssahil/PROJECTS/Mol_Feturizer/New_Systems/rnas/3c44

>  <Rbt.Executable>
rbdock ($Id: //depot/dev/client3/rdock/2013.1/src/exe/rbdock.cxx#4 $)

>  <Rbt.Library>
libRbt.so (2013.1, Build901 2013/11/27)

>  <Rbt.Parameter_File>
/export/apps/rDock/src/rDock_2013.1_src/data/scripts/dock_solv.prm

>  <Rbt.Receptor>
prm/pocket_docking_4.prm

>  <SCORE>
-16.117

>  <SCORE.INTER>
-20.5975

>  <SCORE.INTER.CONST>
1

>  <SCORE.INTER.POLAR>
-1.52065

>  <SCORE.INTER.ROT>
9

>  <SCORE.INTER.SOLV>
18.5062

>  <SCORE.INTER.VDW>
-24.4316

>  <SCORE.INTER.norm>
-0.490417

>  <SCORE.INTRA>
4.48049

>  <SCORE.INTRA.DIHEDRAL>
-0.206837

>  <SCORE.INTRA.DIHEDRAL.0>
14.8538

>  <SCORE.INTRA.POLAR>
0

>  <SCORE.INTRA.POLAR.0>
0

>  <SCORE.INTRA.REPUL>
0

>  <SCORE.INTRA.REPUL.0>
0

>  <SCORE.INTRA.SOLV>
2.13227

>  <SCORE.INTRA.SOLV.lig_0>
-100.951

>  <SCORE.INTRA.VDW>
3.51777

>  <SCORE.INTRA.VDW.0>
-5.71388

>  <SCORE.INTRA.norm>
0.106678

>  <SCORE.RESTR>
0

>  <SCORE.RESTR.CAVITY>
0

>  <SCORE.RESTR.norm>
0

>  <SCORE.SYSTEM>
0

>  <SCORE.SYSTEM.CONST>
0

>  <SCORE.SYSTEM.DIHEDRAL>
0

>  <SCORE.SYSTEM.SOLV>
0

>  <SCORE.SYSTEM.norm>
0

>  <SCORE.heavy>
42

>  <SCORE.norm>
-0.383739

>  <RMSD>
1.526

$$$$
3c44_lig
 OpenBabel11021811463D
libRbt.so/2013.1/901 2013/11/27
 42 45  0  0  0  0  0  0  0  0999 V2000
   37.3101   34.6469  -12.5740 C   0  0  2  0  0  0  0  0  0  0  0  0
   36.3954   34.4756  -13.6675 O   0  0  0  0  0  0  0  0  0  0  0  0
   33.2006   36.9115  -14.6917 C   0  0  2  0  0  0  0  0  0  0  0  0
   31.9670   37.6888  -14.8863 N   0  0  0  0  0  0  0  0  0  0  0  0
   37.0350   37.6821  -12.0419 C   0  0  1  0  0  0  0  0  0  0  0  0
   39.5771   41.0979  -12.2369 C   0  0  1  0  0  0  0  0  0  0  0  0
   38.7211   34.2700  -13.0375 C   0  0  2  0  0  0  0  0  0  0  0  0
   39.0996   35.0317  -14.2365 N   0  0  0  0  0  0  0  0  0  0  0  0
   32.8949   35.4112  -14.6674 C   0  0  0  0  0  0  0  0  0  0  0  0
   36.7486   39.0404  -11.3999 C   0  0  2  0  0  0  0  0  0  0  0  0
   36.1283   39.9085  -12.3504 O   0  0  0  0  0  0  0  0  0  0  0  0
   38.6315   42.2891  -12.0510 C   0  0  2  0  0  0  0  0  0  0  0  0
   37.6883   42.3098  -13.1775 N   0  0  0  0  0  0  0  0  0  0  0  0
   38.8257   32.7736  -13.3425 C   0  0  1  0  0  0  0  0  0  0  0  0
   40.1907   32.4428  -13.6160 O   0  0  0  0  0  0  0  0  0  0  0  0
   34.2316   34.6634  -14.6196 C   0  0  2  0  0  0  0  0  0  0  0  0
   33.9773   33.2175  -14.5332 N   0  0  0  0  0  0  0  0  0  0  0  0
   38.1794   39.5171  -11.1582 C   0  0  2  0  0  0  0  0  0  0  0  0
   38.8094   39.8917  -12.3942 O   0  0  0  0  0  0  0  0  0  0  0  0
   39.4063   43.6132  -12.0288 C   0  0  1  0  0  0  0  0  0  0  0  0
   40.1640   43.7281  -10.8215 O   0  0  0  0  0  0  0  0  0  0  0  0
   38.3342   31.9634  -12.1416 C   0  0  2  0  0  0  0  0  0  0  0  0
   38.3298   30.5717  -12.4702 O   0  0  0  0  0  0  0  0  0  0  0  0
   35.1122   35.0828  -13.4359 C   0  0  2  0  0  0  0  0  0  0  0  0
   38.8122   38.2386  -10.6319 C   0  0  2  0  0  0  0  0  0  0  0  0
   38.0984   37.1391  -11.2376 O   0  0  0  0  0  0  0  0  0  0  0  0
   40.3614   43.7110  -13.2196 C   0  0  2  0  0  0  0  0  0  0  0  0
   39.5926   43.8199  -14.4209 O   0  0  0  0  0  0  0  0  0  0  0  0
   36.9195   32.4088  -11.7681 C   0  0  2  0  0  0  0  0  0  0  0  0
   36.9049   33.8185  -11.4682 O   0  0  0  0  0  0  0  0  0  0  0  0
   35.2581   36.5937  -13.2669 C   0  0  2  0  0  0  0  0  0  0  0  0
   35.8460   36.8746  -11.9862 O   0  0  0  0  0  0  0  0  0  0  0  0
   38.6905   38.1996   -9.1070 C   0  0  0  0  0  0  0  0  0  0  0  0
   37.4400   37.6048   -8.7529 O   0  0  0  0  0  0  0  0  0  0  0  0
   41.2390   42.4571  -13.2582 C   0  0  1  0  0  0  0  0  0  0  0  0
   40.3851   41.3089  -13.4057 O   0  0  0  0  0  0  0  0  0  0  0  0
   36.4904   31.6073  -10.5364 C   0  0  0  0  0  0  0  0  0  0  0  0
   36.2483   30.2053  -10.9061 O   0  0  0  0  0  0  0  0  0  0  0  0
   33.8981   37.2922  -13.3833 C   0  0  1  0  0  0  0  0  0  0  0  0
   34.0685   38.7095  -13.3115 O   0  0  0  0  0  0  0  0  0  0  0  0
   42.2409   42.4871  -14.4131 C   0  0  0  0  0  0  0  0  0  0  0  0
   43.1056   43.6669  -14.2729 N   0  0  0  0  0  0  0  0  0  0  0  0
  1  2  1  6  0  0  0
  1  7  1  0  0  0  0
  1 30  1  0  0  0  0
  3  4  1  1  0  0  0
  3  9  1  0  0  0  0
  3 39  1  0  0  0  0
  5 10  1  0  0  0  0
  5 26  1  0  0  0  0
  5 32  1  1  0  0  0
  6 12  1  0  0  0  0
  6 36  1  0  0  0  0
  6 19  1  6  0  0  0
  7  8  1  6  0  0  0
  7 14  1  0  0  0  0
  9 16  1  0  0  0  0
 10 11  1  6  0  0  0
 10 18  1  0  0  0  0
 12 13  1  6  0  0  0
 12 20  1  0  0  0  0
 14 15  1  1  0  0  0
 14 22  1  0  0  0  0
 16 17  1  1  0  0  0
 16 24  1  0  0  0  0
 18 19  1  6  0  0  0
 18 25  1  0  0  0  0
 20 21  1  1  0  0  0
 20 27  1  0  0  0  0
 22 23  1  6  0  0  0
 22 29  1  0  0  0  0
 24  2  1  6  0  0  0
 24 31  1  0  0  0  0
 25 26  1  0  0  0  0
 25 33  1  1  0  0  0
 27 28  1  6  0  0  0
 27 35  1  0  0  0  0
 29 30  1  0  0  0  0
 29 37  1  1  0  0  0
 31 32  1  1  0  0  0
 31 39  1  0  0  0  0
 33 34  1  0  0  0  0
 35 36  1  0  0  0  0
 35 41  1  6  0  0  0
 37 38  1  0  0  0  0
 39 40  1  6  0  0  0
 41 42  1  0  0  0  0
M  END
>  <CHROM.1>
-166.70647367,112.96440393,-70.55864687,138.30398729,-173.65494965,87.59063204
-71.03282168,125.02844370,59.21895231,37.54969458,37.46728345,-12.62030360
-1.95153647,-0.25287116,-0.11042324

>  <Name>
3c44_lig

>  <RI>
0

>  <Rbt.Current_Directory>
/home/itssahil/PROJECTS/Mol_Feturizer/New_Systems/rnas/3c44

>  <Rbt.Executable>
rbdock ($Id: //depot/dev/client3/rdock/2013.1/src/exe/rbdock.cxx#4 $)

>  <Rbt.Library>
libRbt.so (2013.1, Build901 2013/11/27)

>  <Rbt.Parameter_File>
/export/apps/rDock/src/rDock_2013.1_src/data/scripts/dock_solv.prm

>  <Rbt.Receptor>
prm/pocket_docking_7.prm

>  <SCORE>
-17.1065

>  <SCORE.INTER>
-22.9038

>  <SCORE.INTER.CONST>
1

>  <SCORE.INTER.POLAR>
-2.00547

>  <SCORE.INTER.ROT>
9

>  <SCORE.INTER.SOLV>
24.5726

>  <SCORE.INTER.VDW>
-26.3752

>  <SCORE.INTER.norm>
-0.545328

>  <SCORE.INTRA>
5.79725

>  <SCORE.INTRA.DIHEDRAL>
8.91196

>  <SCORE.INTRA.DIHEDRAL.0>
14.8538

>  <SCORE.INTRA.POLAR>
0

>  <SCORE.INTRA.POLAR.0>
0

>  <SCORE.INTRA.REPUL>
0

>  <SCORE.INTRA.REPUL.0>
0

>  <SCORE.INTRA.SOLV>
-1.49576

>  <SCORE.INTRA.SOLV.lig_0>
-100.951

>  <SCORE.INTRA.VDW>
2.08914

>  <SCORE.INTRA.VDW.0>
-5.71388

>  <SCORE.INTRA.norm>
0.13803

>  <SCORE.RESTR>
0

>  <SCORE.RESTR.CAVITY>
0

>  <SCORE.RESTR.norm>
0

>  <SCORE.SYSTEM>
0

>  <SCORE.SYSTEM.CONST>
0

>  <SCORE.SYSTEM.DIHEDRAL>
0

>  <SCORE.SYSTEM.SOLV>
0

>  <SCORE.SYSTEM.norm>
0

>  <SCORE.heavy>
42

>  <SCORE.norm>
-0.407299

>  <RMSD>
1.527

$$$$
3c44_lig
 OpenBabel11021811463D
libRbt.so/2013.1/901 2013/11/27
 42 45  0  0  0  0  0  0  0  0999 V2000
   36.5678   34.7510  -12.7906 C   0  0  2  0  0  0  0  0  0  0  0  0
   35.8279   34.4770  -13.9902 O   0  0  0  0  0  0  0  0  0  0  0  0
   32.4566   36.2564  -15.6205 C   0  0  2  0  0  0  0  0  0  0  0  0
   31.1593   36.8225  -16.0211 N   0  0  0  0  0  0  0  0  0  0  0  0
   35.9950   37.9751  -12.9962 C   0  0  1  0  0  0  0  0  0  0  0  0
   38.4151   41.4187  -13.6181 C   0  0  1  0  0  0  0  0  0  0  0  0
   38.0664   34.6391  -13.0899 C   0  0  2  0  0  0  0  0  0  0  0  0
   38.4422   35.5069  -14.2154 N   0  0  0  0  0  0  0  0  0  0  0  0
   32.3223   34.7616  -15.3162 C   0  0  0  0  0  0  0  0  0  0  0  0
   35.5331   39.3860  -12.6286 C   0  0  2  0  0  0  0  0  0  0  0  0
   34.8857   39.9948  -13.7475 O   0  0  0  0  0  0  0  0  0  0  0  0
   38.5632   42.0255  -15.0173 C   0  0  2  0  0  0  0  0  0  0  0  0
   39.0182   40.9697  -15.9323 N   0  0  0  0  0  0  0  0  0  0  0  0
   38.4627   33.1971  -13.4168 C   0  0  1  0  0  0  0  0  0  0  0  0
   39.8865   33.1142  -13.5318 O   0  0  0  0  0  0  0  0  0  0  0  0
   33.7286   34.2094  -15.0603 C   0  0  2  0  0  0  0  0  0  0  0  0
   33.6347   32.7857  -14.7035 N   0  0  0  0  0  0  0  0  0  0  0  0
   36.8905   40.0549  -12.4214 C   0  0  2  0  0  0  0  0  0  0  0  0
   37.5522   40.2695  -13.6789 O   0  0  0  0  0  0  0  0  0  0  0  0
   39.5930   43.1628  -15.0215 C   0  0  1  0  0  0  0  0  0  0  0  0
   39.0802   44.3031  -14.3274 O   0  0  0  0  0  0  0  0  0  0  0  0
   37.9845   32.2624  -12.3041 C   0  0  2  0  0  0  0  0  0  0  0  0
   38.2587   30.9061  -12.6651 O   0  0  0  0  0  0  0  0  0  0  0  0
   34.4711   34.9520  -13.9424 C   0  0  2  0  0  0  0  0  0  0  0  0
   37.6179   38.9703  -11.6426 C   0  0  2  0  0  0  0  0  0  0  0  0
   37.0580   37.7073  -12.0629 O   0  0  0  0  0  0  0  0  0  0  0  0
   40.8973   42.7258  -14.3525 C   0  0  2  0  0  0  0  0  0  0  0  0
   41.5256   41.7335  -15.1690 O   0  0  0  0  0  0  0  0  0  0  0  0
   36.4807   32.4452  -12.0930 C   0  0  2  0  0  0  0  0  0  0  0  0
   36.1883   33.8172  -11.7625 O   0  0  0  0  0  0  0  0  0  0  0  0
   34.4323   36.4737  -14.0668 C   0  0  2  0  0  0  0  0  0  0  0  0
   34.8937   37.0632  -12.8403 O   0  0  0  0  0  0  0  0  0  0  0  0
   37.4092   39.1923  -10.1430 C   0  0  0  0  0  0  0  0  0  0  0  0
   37.0316   37.9550   -9.5354 O   0  0  0  0  0  0  0  0  0  0  0  0
   40.5797   42.1559  -12.9675 C   0  0  1  0  0  0  0  0  0  0  0  0
   39.7074   41.0238  -13.1307 O   0  0  0  0  0  0  0  0  0  0  0  0
   36.0587   31.5283  -10.9421 C   0  0  0  0  0  0  0  0  0  0  0  0
   36.7249   31.9406   -9.6982 O   0  0  0  0  0  0  0  0  0  0  0  0
   33.0132   36.9620  -14.3813 C   0  0  1  0  0  0  0  0  0  0  0  0
   33.0163   38.3773  -14.5815 O   0  0  0  0  0  0  0  0  0  0  0  0
   41.8388   41.7136  -12.2209 C   0  0  0  0  0  0  0  0  0  0  0  0
   41.4534   41.1097  -10.9378 N   0  0  0  0  0  0  0  0  0  0  0  0
  1  2  1  6  0  0  0
  1  7  1  0  0  0  0
  1 30  1  0  0  0  0
  3  4  1  1  0  0  0
  3  9  1  0  0  0  0
  3 39  1  0  0  0  0
  5 10  1  0  0  0  0
  5 26  1  0  0  0  0
  5 32  1  1  0  0  0
  6 12  1  0  0  0  0
  6 36  1  0  0  0  0
  6 19  1  6  0  0  0
  7  8  1  6  0  0  0
  7 14  1  0  0  0  0
  9 16  1  0  0  0  0
 10 11  1  6  0  0  0
 10 18  1  0  0  0  0
 12 13  1  6  0  0  0
 12 20  1  0  0  0  0
 14 15  1  1  0  0  0
 14 22  1  0  0  0  0
 16 17  1  1  0  0  0
 16 24  1  0  0  0  0
 18 19  1  6  0  0  0
 18 25  1  0  0  0  0
 20 21  1  1  0  0  0
 20 27  1  0  0  0  0
 22 23  1  6  0  0  0
 22 29  1  0  0  0  0
 24  2  1  6  0  0  0
 24 31  1  0  0  0  0
 25 26  1  0  0  0  0
 25 33  1  1  0  0  0
 27 28  1  6  0  0  0
 27 35  1  0  0  0  0
 29 30  1  0  0  0  0
 29 37  1  1  0  0  0
 31 32  1  1  0  0  0
 31 39  1  0  0  0  0
 33 34  1  0  0  0  0
 35 36  1  0  0  0  0
 35 41  1  6  0  0  0
 37 38  1  0  0  0  0
 39 40  1  6  0  0  0
 41 42  1  0  0  0  0
M  END
>  <CHROM.1>
-161.65572049,114.09505479,-152.83082998,150.75302303,-162.54583015,132.32032749
63.50270183,124.30036935,-176.80562174,36.98753777,37.39813783,-13.27339939
-2.05820035,-0.38039336,-0.25393582

>  <Name>
3c44_lig

>  <RI>
224

>  <Rbt.Current_Directory>
/home/itssahil/PROJECTS/Mol_Feturizer/New_Systems/rnas/3c44

>  <Rbt.Executable>
rbdock ($Id: //depot/dev/client3/rdock/2013.1/src/exe/rbdock.cxx#4 $)

>  <Rbt.Library>
libRbt.so (2013.1, Build901 2013/11/27)

>  <Rbt.Parameter_File>
/export/apps/rDock/src/rDock_2013.1_src/data/scripts/dock_solv.prm

>  <Rbt.Receptor>
prm/pocket_docking_3.prm

>  <SCORE>
-15.7093

>  <SCORE.INTER>
-21.848

>  <SCORE.INTER.CONST>
1

>  <SCORE.INTER.POLAR>
-2.07479

>  <SCORE.INTER.ROT>
9

>  <SCORE.INTER.SOLV>
19.5386

>  <SCORE.INTER.VDW>
-23.7623

>  <SCORE.INTER.norm>
-0.520191

>  <SCORE.INTRA>
6.13873

>  <SCORE.INTRA.DIHEDRAL>
13.5194

>  <SCORE.INTRA.DIHEDRAL.0>
14.8538

>  <SCORE.INTRA.POLAR>
0

>  <SCORE.INTRA.POLAR.0>
0

>  <SCORE.INTRA.REPUL>
0

>  <SCORE.INTRA.REPUL.0>
0

>  <SCORE.INTRA.SOLV>
-2.4973

>  <SCORE.INTRA.SOLV.lig_0>
-100.951

>  <SCORE.INTRA.VDW>
0.627689

>  <SCORE.INTRA.VDW.0>
-5.71388

>  <SCORE.INTRA.norm>
0.14616

>  <SCORE.RESTR>
0

>  <SCORE.RESTR.CAVITY>
0

>  <SCORE.RESTR.norm>
0

>  <SCORE.SYSTEM>
0

>  <SCORE.SYSTEM.CONST>
0

>  <SCORE.SYSTEM.DIHEDRAL>
0

>  <SCORE.SYSTEM.SOLV>
0

>  <SCORE.SYSTEM.norm>
0

>  <SCORE.heavy>
42

>  <SCORE.norm>
-0.374031

>  <RMSD>
1.554

$$$$
3c44_lig
 OpenBabel11021811463D
libRbt.so/2013.1/901 2013/11/27
 42 45  0  0  0  0  0  0  0  0999 V2000
   37.4000   34.1854  -12.8744 C   0  0  2  0  0  0  0  0  0  0  0  0
   36.3663   34.0263  -13.8582 O   0  0  0  0  0  0  0  0  0  0  0  0
   33.2745   36.6270  -14.7893 C   0  0  2  0  0  0  0  0  0  0  0  0
   32.0921   37.4905  -14.9318 N   0  0  0  0  0  0  0  0  0  0  0  0
   36.9190   37.8806  -12.5203 C   0  0  1  0  0  0  0  0  0  0  0  0
   38.8280   41.4336  -12.5563 C   0  0  1  0  0  0  0  0  0  0  0  0
   38.6892   33.5402  -13.3938 C   0  0  2  0  0  0  0  0  0  0  0  0
   39.0524   34.0821  -14.7112 N   0  0  0  0  0  0  0  0  0  0  0  0
   32.8556   35.1722  -14.5586 C   0  0  0  0  0  0  0  0  0  0  0  0
   37.4970   38.2506  -11.1535 C   0  0  2  0  0  0  0  0  0  0  0  0
   36.4977   38.8910  -10.3579 O   0  0  0  0  0  0  0  0  0  0  0  0
   38.9165   42.6915  -11.6859 C   0  0  2  0  0  0  0  0  0  0  0  0
   37.5614   43.2354  -11.5216 N   0  0  0  0  0  0  0  0  0  0  0  0
   38.5469   32.0199  -13.5008 C   0  0  1  0  0  0  0  0  0  0  0  0
   39.8162   31.4502  -13.8350 O   0  0  0  0  0  0  0  0  0  0  0  0
   34.1243   34.3131  -14.5760 C   0  0  2  0  0  0  0  0  0  0  0  0
   33.7682   32.9139  -14.2960 N   0  0  0  0  0  0  0  0  0  0  0  0
   38.5266   39.2935  -11.5838 C   0  0  2  0  0  0  0  0  0  0  0  0
   37.8821   40.5146  -11.9820 O   0  0  0  0  0  0  0  0  0  0  0  0
   39.8025   43.7582  -12.3428 C   0  0  1  0  0  0  0  0  0  0  0  0
   41.1746   43.3567  -12.3102 O   0  0  0  0  0  0  0  0  0  0  0  0
   38.0657   31.4483  -12.1660 C   0  0  2  0  0  0  0  0  0  0  0  0
   37.8288   30.0446  -12.3019 O   0  0  0  0  0  0  0  0  0  0  0  0
   35.1734   34.7707  -13.5550 C   0  0  2  0  0  0  0  0  0  0  0  0
   39.1198   38.6097  -12.8055 C   0  0  2  0  0  0  0  0  0  0  0  0
   38.0779   37.7835  -13.3688 O   0  0  0  0  0  0  0  0  0  0  0  0
   39.3934   43.9924  -13.7979 C   0  0  2  0  0  0  0  0  0  0  0  0
   38.1003   44.6035  -13.8218 O   0  0  0  0  0  0  0  0  0  0  0  0
   36.7738   32.1502  -11.7445 C   0  0  2  0  0  0  0  0  0  0  0  0
   36.9918   33.5709  -11.6380 O   0  0  0  0  0  0  0  0  0  0  0  0
   35.4586   36.2709  -13.5781 C   0  0  2  0  0  0  0  0  0  0  0  0
   36.2191   36.6287  -12.4126 O   0  0  0  0  0  0  0  0  0  0  0  0
   40.3234   37.7646  -12.3827 C   0  0  0  0  0  0  0  0  0  0  0  0
   39.8692   36.6737  -11.5786 O   0  0  0  0  0  0  0  0  0  0  0  0
   39.3629   42.6477  -14.5291 C   0  0  1  0  0  0  0  0  0  0  0  0
   38.4014   41.7981  -13.8786 O   0  0  0  0  0  0  0  0  0  0  0  0
   36.3583   31.5811  -10.3854 C   0  0  0  0  0  0  0  0  0  0  0  0
   35.8590   30.2077  -10.5449 O   0  0  0  0  0  0  0  0  0  0  0  0
   34.1546   37.0763  -13.6201 C   0  0  1  0  0  0  0  0  0  0  0  0
   34.4448   38.4714  -13.7313 O   0  0  0  0  0  0  0  0  0  0  0  0
   38.9815   42.7983  -16.0023 C   0  0  0  0  0  0  0  0  0  0  0  0
   38.5792   41.4887  -16.5342 N   0  0  0  0  0  0  0  0  0  0  0  0
  1  2  1  6  0  0  0
  1  7  1  0  0  0  0
  1 30  1  0  0  0  0
  3  4  1  1  0  0  0
  3  9  1  0  0  0  0
  3 39  1  0  0  0  0
  5 10  1  0  0  0  0
  5 26  1  0  0  0  0
  5 32  1  1  0  0  0
  6 12  1  0  0  0  0
  6 36  1  0  0  0  0
  6 19  1  1  0  0  0
  7  8  1  6  0  0  0
  7 14  1  0  0  0  0
  9 16  1  0  0  0  0
 10 11  1  1  0  0  0
 10 18  1  0  0  0  0
 12 13  1  6  0  0  0
 12 20  1  0  0  0  0
 14 15  1  1  0  0  0
 14 22  1  0  0  0  0
 16 17  1  1  0  0  0
 16 24  1  0  0  0  0
 18 19  1  6  0  0  0
 18 25  1  0  0  0  0
 20 21  1  6  0  0  0
 20 27  1  0  0  0  0
 22 23  1  6  0  0  0
 22 29  1  0  0  0  0
 24  2  1  6  0  0  0
 24 31  1  0  0  0  0
 25 26  1  0  0  0  0
 25 33  1  1  0  0  0
 27 28  1  1  0  0  0
 27 35  1  0  0  0  0
 29 30  1  0  0  0  0
 29 37  1  1  0  0  0
 31 32  1  1  0  0  0
 31 39  1  0  0  0  0
 33 34  1  0  0  0  0
 35 36  1  0  0  0  0
 35 41  1  6  0  0  0
 37 38  1  0  0  0  0
 39 40  1  6  0  0  0
 41 42  1  0  0  0  0
M  END
>  <CHROM.1>
-171.19151176,171.00099990,-116.61203131,-172.23291048,-171.39624533,67.44908771
-72.05119145,160.54115567,-163.13321890,37.32793987,37.25664673,-13.01938330
-1.80444042,-0.32354756,-0.12725000

>  <Name>
3c44_lig

>  <RI>
0

>  <Rbt.Current_Directory>
/home/itssahil/PROJECTS/Mol_Feturizer/New_Systems/rnas/3c44

>  <Rbt.Executable>
rbdock ($Id: //depot/dev/client3/rdock/2013.1/src/exe/rbdock.cxx#4 $)

>  <Rbt.Library>
libRbt.so (2013.1, Build901 2013/11/27)

>  <Rbt.Parameter_File>
/export/apps/rDock/src/rDock_2013.1_src/data/scripts/dock_solv.prm

>  <Rbt.Receptor>
prm/pocket_docking_2.prm

>  <SCORE>
-19.6192

>  <SCORE.INTER>
-19.6987

>  <SCORE.INTER.CONST>
1

>  <SCORE.INTER.POLAR>
-1.62942

>  <SCORE.INTER.ROT>
9

>  <SCORE.INTER.SOLV>
21.7795

>  <SCORE.INTER.VDW>
-24.5609

>  <SCORE.INTER.norm>
-0.469016

>  <SCORE.INTRA>
-0.587108

>  <SCORE.INTRA.DIHEDRAL>
-2.45356

>  <SCORE.INTRA.DIHEDRAL.0>
14.8538

>  <SCORE.INTRA.POLAR>
0

>  <SCORE.INTRA.POLAR.0>
0

>  <SCORE.INTRA.REPUL>
0.00263119

>  <SCORE.INTRA.REPUL.0>
0

>  <SCORE.INTRA.SOLV>
-3.89053

>  <SCORE.INTRA.SOLV.lig_0>
-100.951

>  <SCORE.INTRA.VDW>
2.57178

>  <SCORE.INTRA.VDW.0>
-5.71388

>  <SCORE.INTRA.norm>
-0.0139788

>  <SCORE.RESTR>
0.666584

>  <SCORE.RESTR.CAVITY>
0.666584

>  <SCORE.RESTR.norm>
0.0158711

>  <SCORE.SYSTEM>
0

>  <SCORE.SYSTEM.CONST>
0

>  <SCORE.SYSTEM.DIHEDRAL>
0

>  <SCORE.SYSTEM.SOLV>
0

>  <SCORE.SYSTEM.norm>
0

>  <SCORE.heavy>
42

>  <SCORE.norm>
-0.467124

>  <RMSD>
1.575

$$$$
3c44_lig
 OpenBabel11021811463D
libRbt.so/2013.1/901 2013/11/27
 42 45  0  0  0  0  0  0  0  0999 V2000
   37.4331   35.1064  -12.9187 C   0  0  2  0  0  0  0  0  0  0  0  0
   36.8306   35.1821  -14.2199 O   0  0  0  0  0  0  0  0  0  0  0  0
   34.3990   38.0013  -16.0443 C   0  0  2  0  0  0  0  0  0  0  0  0
   33.4004   38.9665  -16.5291 N   0  0  0  0  0  0  0  0  0  0  0  0
   37.3947   39.1156  -12.9678 C   0  0  1  0  0  0  0  0  0  0  0  0
   39.4110   42.6903  -12.2926 C   0  0  1  0  0  0  0  0  0  0  0  0
   38.8372   34.5074  -13.0510 C   0  0  2  0  0  0  0  0  0  0  0  0
   39.6412   35.2657  -14.0203 N   0  0  0  0  0  0  0  0  0  0  0  0
   33.7663   36.6197  -15.8544 C   0  0  0  0  0  0  0  0  0  0  0  0
   37.8035   39.4191  -11.5257 C   0  0  2  0  0  0  0  0  0  0  0  0
   36.7349   40.0784  -10.8437 O   0  0  0  0  0  0  0  0  0  0  0  0
   38.7775   44.0579  -12.5688 C   0  0  2  0  0  0  0  0  0  0  0  0
   37.9462   43.9461  -13.7753 N   0  0  0  0  0  0  0  0  0  0  0  0
   38.7783   33.0418  -13.4886 C   0  0  1  0  0  0  0  0  0  0  0  0
   40.0950   32.4835  -13.4446 O   0  0  0  0  0  0  0  0  0  0  0  0
   34.8883   35.6373  -15.5020 C   0  0  2  0  0  0  0  0  0  0  0  0
   34.3102   34.3084  -15.2513 N   0  0  0  0  0  0  0  0  0  0  0  0
   38.9207   40.4285  -11.7824 C   0  0  2  0  0  0  0  0  0  0  0  0
   38.3822   41.6879  -12.2172 O   0  0  0  0  0  0  0  0  0  0  0  0
   39.8514   45.1282  -12.8042 C   0  0  1  0  0  0  0  0  0  0  0  0
   40.5313   45.4302  -11.5829 O   0  0  0  0  0  0  0  0  0  0  0  0
   37.8587   32.2568  -12.5514 C   0  0  2  0  0  0  0  0  0  0  0  0
   37.7194   30.9155  -13.0274 O   0  0  0  0  0  0  0  0  0  0  0  0
   35.6969   36.0657  -14.2710 C   0  0  2  0  0  0  0  0  0  0  0  0
   39.6409   39.7563  -12.9406 C   0  0  2  0  0  0  0  0  0  0  0  0
   38.6497   38.9935  -13.6625 O   0  0  0  0  0  0  0  0  0  0  0  0
   40.8787   44.6586  -13.8355 C   0  0  2  0  0  0  0  0  0  0  0  0
   40.2428   44.5689  -15.1136 O   0  0  0  0  0  0  0  0  0  0  0  0
   36.4862   32.9297  -12.4988 C   0  0  2  0  0  0  0  0  0  0  0  0
   36.6182   34.2940  -12.0533 O   0  0  0  0  0  0  0  0  0  0  0  0
   36.1548   37.5225  -14.2972 C   0  0  2  0  0  0  0  0  0  0  0  0
   36.6380   37.8927  -12.9956 O   0  0  0  0  0  0  0  0  0  0  0  0
   40.7448   38.8473  -12.3960 C   0  0  0  0  0  0  0  0  0  0  0  0
   40.1470   37.7521  -11.6988 O   0  0  0  0  0  0  0  0  0  0  0  0
   41.4211   43.2913  -13.4109 C   0  0  1  0  0  0  0  0  0  0  0  0
   40.3226   42.3643  -13.3538 O   0  0  0  0  0  0  0  0  0  0  0  0
   35.6191   32.1396  -11.5153 C   0  0  0  0  0  0  0  0  0  0  0  0
   35.3357   30.8018  -12.0548 O   0  0  0  0  0  0  0  0  0  0  0  0
   35.0072   38.4504  -14.7132 C   0  0  1  0  0  0  0  0  0  0  0  0
   35.4794   39.7955  -14.8177 O   0  0  0  0  0  0  0  0  0  0  0  0
   42.4745   42.7591  -14.3832 C   0  0  0  0  0  0  0  0  0  0  0  0
   43.6181   43.6816  -14.4100 N   0  0  0  0  0  0  0  0  0  0  0  0
  1  2  1  6  0  0  0
  1  7  1  0  0  0  0
  1 30  1  0  0  0  0
  3  4  1  1  0  0  0
  3  9  1  0  0  0  0
  3 39  1  0  0  0  0
  5 10  1  0  0  0  0
  5 26  1  0  0  0  0
  5 32  1  1  0  0  0
  6 12  1  0  0  0  0
  6 36  1  0  0  0  0
  6 19  1  6  0  0  0
  7  8  1  6  0  0  0
  7 14  1  0  0  0  0
  9 16  1  0  0  0  0
 10 11  1  1  0  0  0
 10 18  1  0  0  0  0
 12 13  1  6  0  0  0
 12 20  1  0  0  0  0
 14 15  1  1  0  0  0
 14 22  1  0  0  0  0
 16 17  1  1  0  0  0
 16 24  1  0  0  0  0
 18 19  1  6  0  0  0
 18 25  1  0  0  0  0
 20 21  1  1  0  0  0
 20 27  1  0  0  0  0
 22 23  1  6  0  0  0
 22 29  1  0  0  0  0
 24  2  1  6  0  0  0
 24 31  1  0  0  0  0
 25 26  1  0  0  0  0
 25 33  1  1  0  0  0
 27 28  1  6  0  0  0
 27 35  1  0  0  0  0
 29 30  1  0  0  0  0
 29 37  1  1  0  0  0
 31 32  1  1  0  0  0
 31 39  1  0  0  0  0
 33 34  1  0  0  0  0
 35 36  1  0  0  0  0
 35 41  1  6  0  0  0
 37 38  1  0  0  0  0
 39 40  1  6  0  0  0
 41 42  1  0  0  0  0
M  END
>  <CHROM.1>
-163.00788849,177.96458689,-172.23785830,172.50003007,-159.16833629,67.58045667
-67.38925243,165.41110478,61.67599296,37.98358925,38.33197557,-13.37747919
-1.94644196,-0.37034743,-0.13169547

>  <Name>
3c44_lig

>  <RI>
0

>  <Rbt.Current_Directory>
/home/itssahil/PROJECTS/Mol_Feturizer/New_Systems/rnas/3c44

>  <Rbt.Executable>
rbdock ($Id: //depot/dev/client3/rdock/2013.1/src/exe/rbdock.cxx#4 $)

>  <Rbt.Library>
libRbt.so (2013.1, Build901 2013/11/27)

>  <Rbt.Parameter_File>
/export/apps/rDock/src/rDock_2013.1_src/data/scripts/dock_solv.prm

>  <Rbt.Receptor>
prm/pocket_docking_5.prm

>  <SCORE>
-19.7161

>  <SCORE.INTER>
-16.4793

>  <SCORE.INTER.CONST>
1

>  <SCORE.INTER.POLAR>
-1.84456

>  <SCORE.INTER.ROT>
9

>  <SCORE.INTER.SOLV>
18.5101

>  <SCORE.INTER.VDW>
-20.6077

>  <SCORE.INTER.norm>
-0.392365

>  <SCORE.INTRA>
-3.24638

>  <SCORE.INTRA.DIHEDRAL>
-9.14293

>  <SCORE.INTRA.DIHEDRAL.0>
14.8538

>  <SCORE.INTRA.POLAR>
0

>  <SCORE.INTRA.POLAR.0>
0

>  <SCORE.INTRA.REPUL>
0.00807749

>  <SCORE.INTRA.REPUL.0>
0

>  <SCORE.INTRA.SOLV>
-2.16362

>  <SCORE.INTRA.SOLV.lig_0>
-100.951

>  <SCORE.INTRA.VDW>
2.36651

>  <SCORE.INTRA.VDW.0>
-5.71388

>  <SCORE.INTRA.norm>
-0.0772946

>  <SCORE.RESTR>
0.00965324

>  <SCORE.RESTR.CAVITY>
0.00965324

>  <SCORE.RESTR.norm>
0.000229839

>  <SCORE.SYSTEM>
0

>  <SCORE.SYSTEM.CONST>
0

>  <SCORE.SYSTEM.DIHEDRAL>
0

>  <SCORE.SYSTEM.SOLV>
0

>  <SCORE.SYSTEM.norm>
0

>  <SCORE.heavy>
42

>  <SCORE.norm>
-0.46943

>  <RMSD>
1.624

$$$$
3c44_lig
 OpenBabel11021811463D
libRbt.so/2013.1/901 2013/11/27
 42 45  0  0  0  0  0  0  0  0999 V2000
   37.3409   34.5259  -12.6606 C   0  0  2  0  0  0  0  0  0  0  0  0
   36.4496   34.4739  -13.7852 O   0  0  0  0  0  0  0  0  0  0  0  0
   33.1525   36.7026  -14.9477 C   0  0  2  0  0  0  0  0  0  0  0  0
   31.9019   37.4454  -15.1670 N   0  0  0  0  0  0  0  0  0  0  0  0
   37.0067   38.2284  -12.9286 C   0  0  1  0  0  0  0  0  0  0  0  0
   39.5848   41.4381  -13.3722 C   0  0  1  0  0  0  0  0  0  0  0  0
   38.7151   33.9978  -13.0858 C   0  0  2  0  0  0  0  0  0  0  0  0
   39.2168   34.7278  -14.2590 N   0  0  0  0  0  0  0  0  0  0  0  0
   32.8572   35.2466  -14.5761 C   0  0  0  0  0  0  0  0  0  0  0  0
   37.5875   38.8113  -11.6394 C   0  0  2  0  0  0  0  0  0  0  0  0
   36.6957   39.7891  -11.1006 O   0  0  0  0  0  0  0  0  0  0  0  0
   40.1295   42.2846  -12.2169 C   0  0  2  0  0  0  0  0  0  0  0  0
   39.0367   43.1218  -11.7030 N   0  0  0  0  0  0  0  0  0  0  0  0
   38.6604   32.5034  -13.4128 C   0  0  1  0  0  0  0  0  0  0  0  0
   39.9877   32.0238  -13.6486 O   0  0  0  0  0  0  0  0  0  0  0  0
   34.1940   34.4999  -14.5167 C   0  0  2  0  0  0  0  0  0  0  0  0
   33.9563   33.1092  -14.1017 N   0  0  0  0  0  0  0  0  0  0  0  0
   38.8131   39.5232  -12.2086 C   0  0  2  0  0  0  0  0  0  0  0  0
   38.4288   40.7049  -12.9304 O   0  0  0  0  0  0  0  0  0  0  0  0
   41.2717   43.1945  -12.6877 C   0  0  1  0  0  0  0  0  0  0  0  0
   42.4387   42.4208  -12.9784 O   0  0  0  0  0  0  0  0  0  0  0  0
   38.0409   31.7382  -12.2419 C   0  0  2  0  0  0  0  0  0  0  0  0
   37.8906   30.3604  -12.5942 O   0  0  0  0  0  0  0  0  0  0  0  0
   35.1972   35.1406  -13.5494 C   0  0  2  0  0  0  0  0  0  0  0  0
   39.3157   38.4716  -13.1852 C   0  0  2  0  0  0  0  0  0  0  0  0
   38.1602   37.7285  -13.6301 O   0  0  0  0  0  0  0  0  0  0  0  0
   40.8728   43.9728  -13.9426 C   0  0  2  0  0  0  0  0  0  0  0  0
   39.8489   44.9106  -13.5987 O   0  0  0  0  0  0  0  0  0  0  0  0
   36.6738   32.3359  -11.9057 C   0  0  2  0  0  0  0  0  0  0  0  0
   36.8083   33.7340  -11.5825 O   0  0  0  0  0  0  0  0  0  0  0  0
   35.3547   36.6504  -13.7181 C   0  0  2  0  0  0  0  0  0  0  0  0
   36.0781   37.1816  -12.5960 O   0  0  0  0  0  0  0  0  0  0  0  0
   40.3186   37.5573  -12.4783 C   0  0  0  0  0  0  0  0  0  0  0  0
   39.6584   36.8786  -11.4076 O   0  0  0  0  0  0  0  0  0  0  0  0
   40.3633   42.9880  -14.9982 C   0  0  1  0  0  0  0  0  0  0  0  0
   39.2198   42.2988  -14.4628 O   0  0  0  0  0  0  0  0  0  0  0  0
   36.1164   31.5718  -10.7021 C   0  0  0  0  0  0  0  0  0  0  0  0
   36.8285   31.9684   -9.4788 O   0  0  0  0  0  0  0  0  0  0  0  0
   33.9874   37.3350  -13.8313 C   0  0  1  0  0  0  0  0  0  0  0  0
   34.1592   38.7324  -14.0776 O   0  0  0  0  0  0  0  0  0  0  0  0
   39.9623   43.6881  -16.2973 C   0  0  0  0  0  0  0  0  0  0  0  0
   39.5528   42.6791  -17.2841 N   0  0  0  0  0  0  0  0  0  0  0  0
  1  2  1  6  0  0  0
  1  7  1  0  0  0  0
  1 30  1  0  0  0  0
  3  4  1  1  0  0  0
  3  9  1  0  0  0  0
  3 39  1  0  0  0  0
  5 10  1  0  0  0  0
  5 26  1  0  0  0  0
  5 32  1  1  0  0  0
  6 12  1  0  0  0  0
  6 36  1  0  0  0  0
  6 19  1  1  0  0  0
  7  8  1  6  0  0  0
  7 14  1  0  0  0  0
  9 16  1  0  0  0  0
 10 11  1  6  0  0  0
 10 18  1  0  0  0  0
 12 13  1  6  0  0  0
 12 20  1  0  0  0  0
 14 15  1  1  0  0  0
 14 22  1  0  0  0  0
 16 17  1  1  0  0  0
 16 24  1  0  0  0  0
 18 19  1  6  0  0  0
 18 25  1  0  0  0  0
 20 21  1  6  0  0  0
 20 27  1  0  0  0  0
 22 23  1  6  0  0  0
 22 29  1  0  0  0  0
 24  2  1  6  0  0  0
 24 31  1  0  0  0  0
 25 26  1  0  0  0  0
 25 33  1  1  0  0  0
 27 28  1  1  0  0  0
 27 35  1  0  0  0  0
 29 30  1  0  0  0  0
 29 37  1  1  0  0  0
 31 32  1  1  0  0  0
 31 39  1  0  0  0  0
 33 34  1  0  0  0  0
 35 36  1  0  0  0  0
 35 41  1  6  0  0  0
 37 38  1  0  0  0  0
 39 40  1  6  0  0  0
 41 42  1  0  0  0  0
M  END
>  <CHROM.1>
-170.80308582,173.59878893,-80.84786863,175.17024527,-155.98789424,62.28877411
73.86448783,141.75109893,177.02913725,37.67947418,37.53064065,-13.20205332
-1.94065639,-0.29308297,-0.22064228

>  <Name>
3c44_lig

>  <RI>
224

>  <Rbt.Current_Directory>
/home/itssahil/PROJECTS/Mol_Feturizer/New_Systems/rnas/3c44

>  <Rbt.Executable>
rbdock ($Id: //depot/dev/client3/rdock/2013.1/src/exe/rbdock.cxx#4 $)

>  <Rbt.Library>
libRbt.so (2013.1, Build901 2013/11/27)

>  <Rbt.Parameter_File>
/export/apps/rDock/src/rDock_2013.1_src/data/scripts/dock_solv.prm

>  <Rbt.Receptor>
prm/pocket_docking_3.prm

>  <SCORE>
-18.0543

>  <SCORE.INTER>
-16.2907

>  <SCORE.INTER.CONST>
1

>  <SCORE.INTER.POLAR>
-0.938083

>  <SCORE.INTER.ROT>
9

>  <SCORE.INTER.SOLV>
22.8714

>  <SCORE.INTER.VDW>
-24.9573

>  <SCORE.INTER.norm>
-0.387873

>  <SCORE.INTRA>
-1.76365

>  <SCORE.INTRA.DIHEDRAL>
-3.44331

>  <SCORE.INTRA.DIHEDRAL.0>
14.8538

>  <SCORE.INTRA.POLAR>
0

>  <SCORE.INTRA.POLAR.0>
0

>  <SCORE.INTRA.REPUL>
0

>  <SCORE.INTRA.REPUL.0>
0

>  <SCORE.INTRA.SOLV>
-1.13888

>  <SCORE.INTRA.SOLV.lig_0>
-100.951

>  <SCORE.INTRA.VDW>
0.527446

>  <SCORE.INTRA.VDW.0>
-5.71388

>  <SCORE.INTRA.norm>
-0.0419916

>  <SCORE.RESTR>
0

>  <SCORE.RESTR.CAVITY>
0

>  <SCORE.RESTR.norm>
0

>  <SCORE.SYSTEM>
0

>  <SCORE.SYSTEM.CONST>
0

>  <SCORE.SYSTEM.DIHEDRAL>
0

>  <SCORE.SYSTEM.SOLV>
0

>  <SCORE.SYSTEM.norm>
0

>  <SCORE.heavy>
42

>  <SCORE.norm>
-0.429865

>  <RMSD>
1.677

$$$$
3c44_lig
 OpenBabel11021811463D
libRbt.so/2013.1/901 2013/11/27
 42 45  0  0  0  0  0  0  0  0999 V2000
   37.4095   34.4715  -12.6167 C   0  0  2  0  0  0  0  0  0  0  0  0
   36.4708   34.2842  -13.6870 O   0  0  0  0  0  0  0  0  0  0  0  0
   33.1867   36.5367  -14.8404 C   0  0  2  0  0  0  0  0  0  0  0  0
   31.9364   37.2798  -15.0607 N   0  0  0  0  0  0  0  0  0  0  0  0
   37.1145   37.8626  -12.6874 C   0  0  1  0  0  0  0  0  0  0  0  0
   39.8894   40.8120  -13.3399 C   0  0  1  0  0  0  0  0  0  0  0  0
   38.8294   34.2622  -13.1534 C   0  0  2  0  0  0  0  0  0  0  0  0
   39.0858   35.1325  -14.3101 N   0  0  0  0  0  0  0  0  0  0  0  0
   32.8932   35.0650  -14.5351 C   0  0  0  0  0  0  0  0  0  0  0  0
   36.9818   39.0812  -11.7729 C   0  0  2  0  0  0  0  0  0  0  0  0
   36.0444   40.0070  -12.3260 O   0  0  0  0  0  0  0  0  0  0  0  0
   40.0529   42.0104  -12.3991 C   0  0  2  0  0  0  0  0  0  0  0  0
   38.9705   42.9650  -12.6754 N   0  0  0  0  0  0  0  0  0  0  0  0
   39.0607   32.8056  -13.5630 C   0  0  1  0  0  0  0  0  0  0  0  0
   40.4382   32.6254  -13.9055 O   0  0  0  0  0  0  0  0  0  0  0  0
   34.2337   34.3252  -14.4726 C   0  0  2  0  0  0  0  0  0  0  0  0
   33.9962   32.9173  -14.1200 N   0  0  0  0  0  0  0  0  0  0  0  0
   38.3877   39.6615  -11.9124 C   0  0  2  0  0  0  0  0  0  0  0  0
   38.5649   40.2679  -13.2032 O   0  0  0  0  0  0  0  0  0  0  0  0
   41.4000   42.7100  -12.6226 C   0  0  1  0  0  0  0  0  0  0  0  0
   42.4722   41.8929  -12.1455 O   0  0  0  0  0  0  0  0  0  0  0  0
   38.6964   31.8763  -12.4037 C   0  0  2  0  0  0  0  0  0  0  0  0
   38.8085   30.5146  -12.8261 O   0  0  0  0  0  0  0  0  0  0  0  0
   35.2080   34.9328  -13.4557 C   0  0  2  0  0  0  0  0  0  0  0  0
   39.2210   38.3924  -11.8280 C   0  0  2  0  0  0  0  0  0  0  0  0
   38.4069   37.3224  -12.3550 O   0  0  0  0  0  0  0  0  0  0  0  0
   41.6279   43.0027  -14.1065 C   0  0  2  0  0  0  0  0  0  0  0  0
   40.6878   43.9934  -14.5319 O   0  0  0  0  0  0  0  0  0  0  0  0
   37.2628   32.1590  -11.9520 C   0  0  2  0  0  0  0  0  0  0  0  0
   37.1290   33.5385  -11.5565 O   0  0  0  0  0  0  0  0  0  0  0  0
   35.3584   36.4491  -13.5596 C   0  0  2  0  0  0  0  0  0  0  0  0
   36.0501   36.9392  -12.3993 O   0  0  0  0  0  0  0  0  0  0  0  0
   39.6002   38.1275  -10.3694 C   0  0  0  0  0  0  0  0  0  0  0  0
   40.3450   39.2409   -9.8706 O   0  0  0  0  0  0  0  0  0  0  0  0
   41.4392   41.7093  -14.9037 C   0  0  1  0  0  0  0  0  0  0  0  0
   40.0957   41.2391  -14.6958 O   0  0  0  0  0  0  0  0  0  0  0  0
   36.9612   31.2423  -10.7637 C   0  0  0  0  0  0  0  0  0  0  0  0
   35.5462   31.3592  -10.3828 O   0  0  0  0  0  0  0  0  0  0  0  0
   33.9892   37.1289  -13.6790 C   0  0  1  0  0  0  0  0  0  0  0  0
   34.1566   38.5362  -13.8646 O   0  0  0  0  0  0  0  0  0  0  0  0
   41.6716   41.9132  -16.4013 C   0  0  0  0  0  0  0  0  0  0  0  0
   41.5787   40.6164  -17.0862 N   0  0  0  0  0  0  0  0  0  0  0  0
  1  2  1  6  0  0  0
  1  7  1  0  0  0  0
  1 30  1  0  0  0  0
  3  4  1  1  0  0  0
  3  9  1  0  0  0  0
  3 39  1  0  0  0  0
  5 10  1  0  0  0  0
  5 26  1  0  0  0  0
  5 32  1  1  0  0  0
  6 12  1  0  0  0  0
  6 36  1  0  0  0  0
  6 19  1  6  0  0  0
  7  8  1  6  0  0  0
  7 14  1  0  0  0  0
  9 16  1  0  0  0  0
 10 11  1  6  0  0  0
 10 18  1  0  0  0  0
 12 13  1  6  0  0  0
 12 20  1  0  0  0  0
 14 15  1  1  0  0  0
 14 22  1  0  0  0  0
 16 17  1  1  0  0  0
 16 24  1  0  0  0  0
 18 19  1  6  0  0  0
 18 25  1  0  0  0  0
 20 21  1  6  0  0  0
 20 27  1  0  0  0  0
 22 23  1  6  0  0  0
 22 29  1  0  0  0  0
 24  2  1  6  0  0  0
 24 31  1  0  0  0  0
 25 26  1  0  0  0  0
 25 33  1  1  0  0  0
 27 28  1  6  0  0  0
 27 35  1  0  0  0  0
 29 30  1  0  0  0  0
 29 37  1  1  0  0  0
 31 32  1  1  0  0  0
 31 39  1  0  0  0  0
 33 34  1  0  0  0  0
 35 36  1  0  0  0  0
 35 41  1  6  0  0  0
 37 38  1  0  0  0  0
 39 40  1  6  0  0  0
 41 42  1  0  0  0  0
M  END
>  <CHROM.1>
-157.53818005,132.15532617,-68.05069841,-179.82253999,-164.93755002,-59.35417854
-173.56754465,133.09670003,175.57012004,37.90394340,37.31026012,-13.13070416
-2.04326470,-0.17871189,-0.18037884

>  <Name>
3c44_lig

>  <RI>
0

>  <Rbt.Current_Directory>
/home/itssahil/PROJECTS/Mol_Feturizer/New_Systems/rnas/3c44

>  <Rbt.Executable>
rbdock ($Id: //depot/dev/client3/rdock/2013.1/src/exe/rbdock.cxx#4 $)

>  <Rbt.Library>
libRbt.so (2013.1, Build901 2013/11/27)

>  <Rbt.Parameter_File>
/export/apps/rDock/src/rDock_2013.1_src/data/scripts/dock_solv.prm

>  <Rbt.Receptor>
prm/pocket_docking_4.prm

>  <SCORE>
-17.5577

>  <SCORE.INTER>
-18.6499

>  <SCORE.INTER.CONST>
1

>  <SCORE.INTER.POLAR>
-0.938083

>  <SCORE.INTER.ROT>
9

>  <SCORE.INTER.SOLV>
19.7293

>  <SCORE.INTER.VDW>
-25.4828

>  <SCORE.INTER.norm>
-0.444046

>  <SCORE.INTRA>
1.08355

>  <SCORE.INTRA.DIHEDRAL>
2.12682

>  <SCORE.INTRA.DIHEDRAL.0>
14.8538

>  <SCORE.INTRA.POLAR>
0

>  <SCORE.INTRA.POLAR.0>
0

>  <SCORE.INTRA.REPUL>
0

>  <SCORE.INTRA.REPUL.0>
0

>  <SCORE.INTRA.SOLV>
-2.47504

>  <SCORE.INTRA.SOLV.lig_0>
-100.951

>  <SCORE.INTRA.VDW>
1.25766

>  <SCORE.INTRA.VDW.0>
-5.71388

>  <SCORE.INTRA.norm>
0.0257989

>  <SCORE.RESTR>
0.00864534

>  <SCORE.RESTR.CAVITY>
0.00864534

>  <SCORE.RESTR.norm>
0.000205841

>  <SCORE.SYSTEM>
0

>  <SCORE.SYSTEM.CONST>
0

>  <SCORE.SYSTEM.DIHEDRAL>
0

>  <SCORE.SYSTEM.SOLV>
0

>  <SCORE.SYSTEM.norm>
0

>  <SCORE.heavy>
42

>  <SCORE.norm>
-0.418041

>  <RMSD>
1.681

$$$$
3c44_lig
 OpenBabel11021811463D
libRbt.so/2013.1/901 2013/11/27
 42 45  0  0  0  0  0  0  0  0999 V2000
   36.8875   33.9650  -12.6030 C   0  0  2  0  0  0  0  0  0  0  0  0
   36.1833   33.8648  -13.8503 O   0  0  0  0  0  0  0  0  0  0  0  0
   33.4190   36.2790  -15.7792 C   0  0  2  0  0  0  0  0  0  0  0  0
   32.3217   37.1185  -16.2840 N   0  0  0  0  0  0  0  0  0  0  0  0
   36.8587   37.8023  -13.2638 C   0  0  1  0  0  0  0  0  0  0  0  0
   39.3093   41.2438  -13.1725 C   0  0  1  0  0  0  0  0  0  0  0  0
   38.3089   33.4227  -12.7854 C   0  0  2  0  0  0  0  0  0  0  0  0
   38.9916   34.1045  -13.8945 N   0  0  0  0  0  0  0  0  0  0  0  0
   32.8911   34.9133  -15.3304 C   0  0  0  0  0  0  0  0  0  0  0  0
   37.4220   38.3128  -11.9366 C   0  0  2  0  0  0  0  0  0  0  0  0
   36.5054   39.2313  -11.3383 O   0  0  0  0  0  0  0  0  0  0  0  0
   39.6059   41.8019  -11.7767 C   0  0  2  0  0  0  0  0  0  0  0  0
   38.3612   42.3576  -11.2279 N   0  0  0  0  0  0  0  0  0  0  0  0
   38.2995   31.9159  -13.0552 C   0  0  1  0  0  0  0  0  0  0  0  0
   39.6452   31.4297  -13.0601 O   0  0  0  0  0  0  0  0  0  0  0  0
   34.0987   34.0429  -14.9667 C   0  0  2  0  0  0  0  0  0  0  0  0
   33.6280   32.7405  -14.4714 N   0  0  0  0  0  0  0  0  0  0  0  0
   38.6313   39.0900  -12.4527 C   0  0  2  0  0  0  0  0  0  0  0  0
   38.2202   40.3071  -13.0968 O   0  0  0  0  0  0  0  0  0  0  0  0
   40.6609   42.9142  -11.8378 C   0  0  1  0  0  0  0  0  0  0  0  0
   41.9456   42.3673  -12.1465 O   0  0  0  0  0  0  0  0  0  0  0  0
   37.5008   31.1984  -11.9655 C   0  0  2  0  0  0  0  0  0  0  0  0
   37.4014   29.8070  -12.2800 O   0  0  0  0  0  0  0  0  0  0  0  0
   35.0000   34.6810  -13.9023 C   0  0  2  0  0  0  0  0  0  0  0  0
   39.1618   38.1175  -13.4943 C   0  0  2  0  0  0  0  0  0  0  0  0
   38.0258   37.3777  -13.9919 O   0  0  0  0  0  0  0  0  0  0  0  0
   40.3016   43.9548  -12.8997 C   0  0  2  0  0  0  0  0  0  0  0  0
   39.1301   44.6593  -12.4787 O   0  0  0  0  0  0  0  0  0  0  0  0
   36.1006   31.8068  -11.8726 C   0  0  2  0  0  0  0  0  0  0  0  0
   36.1890   33.2173  -11.5900 O   0  0  0  0  0  0  0  0  0  0  0  0
   35.3663   36.1371  -14.1816 C   0  0  2  0  0  0  0  0  0  0  0  0
   35.9551   36.7138  -13.0045 O   0  0  0  0  0  0  0  0  0  0  0  0
   40.1849   37.1830  -12.8451 C   0  0  0  0  0  0  0  0  0  0  0  0
   39.5065   36.2919  -11.9570 O   0  0  0  0  0  0  0  0  0  0  0  0
   40.0473   43.2411  -14.2301 C   0  0  1  0  0  0  0  0  0  0  0  0
   38.9543   42.3229  -14.0517 O   0  0  0  0  0  0  0  0  0  0  0  0
   35.3579   31.0919  -10.7408 C   0  0  0  0  0  0  0  0  0  0  0  0
   36.0808   31.2679   -9.4730 O   0  0  0  0  0  0  0  0  0  0  0  0
   34.1302   36.9433  -14.5975 C   0  0  1  0  0  0  0  0  0  0  0  0
   34.5095   38.2783  -14.9398 O   0  0  0  0  0  0  0  0  0  0  0  0
   39.7012   44.2182  -15.3543 C   0  0  0  0  0  0  0  0  0  0  0  0
   39.5013   43.4685  -16.6023 N   0  0  0  0  0  0  0  0  0  0  0  0
  1  2  1  6  0  0  0
  1  7  1  0  0  0  0
  1 30  1  0  0  0  0
  3  4  1  1  0  0  0
  3  9  1  0  0  0  0
  3 39  1  0  0  0  0
  5 10  1  0  0  0  0
  5 26  1  0  0  0  0
  5 32  1  1  0  0  0
  6 12  1  0  0  0  0
  6 36  1  0  0  0  0
  6 19  1  1  0  0  0
  7  8  1  6  0  0  0
  7 14  1  0  0  0  0
  9 16  1  0  0  0  0
 10 11  1  6  0  0  0
 10 18  1  0  0  0  0
 12 13  1  6  0  0  0
 12 20  1  0  0  0  0
 14 15  1  1  0  0  0
 14 22  1  0  0  0  0
 16 17  1  1  0  0  0
 16 24  1  0  0  0  0
 18 19  1  6  0  0  0
 18 25  1  0  0  0  0
 20 21  1  6  0  0  0
 20 27  1  0  0  0  0
 22 23  1  6  0  0  0
 22 29  1  0  0  0  0
 24  2  1  6  0  0  0
 24 31  1  0  0  0  0
 25 26  1  0  0  0  0
 25 33  1  1  0  0  0
 27 28  1  1  0  0  0
 27 35  1  0  0  0  0
 29 30  1  0  0  0  0
 29 37  1  1  0  0  0
 31 32  1  1  0  0  0
 31 39  1  0  0  0  0
 33 34  1  0  0  0  0
 35 36  1  0  0  0  0
 35 41  1  6  0  0  0
 37 38  1  0  0  0  0
 39 40  1  6  0  0  0
 41 42  1  0  0  0  0
M  END
>  <CHROM.1>
-163.06505110,-179.45218976,-71.73771928,160.23315785,-156.80403855,70.22714400
59.49995918,153.41868702,178.71545625,37.40293617,37.15954632,-13.18390391
-1.94637338,-0.50952377,-0.24092878

>  <Name>
3c44_lig

>  <RI>
0

>  <Rbt.Current_Directory>
/home/itssahil/PROJECTS/Mol_Feturizer/New_Systems/rnas/3c44

>  <Rbt.Executable>
rbdock ($Id: //depot/dev/client3/rdock/2013.1/src/exe/rbdock.cxx#4 $)

>  <Rbt.Library>
libRbt.so (2013.1, Build901 2013/11/27)

>  <Rbt.Parameter_File>
/export/apps/rDock/src/rDock_2013.1_src/data/scripts/dock_solv.prm

>  <Rbt.Receptor>
prm/pocket_docking_2.prm

>  <SCORE>
-13.5705

>  <SCORE.INTER>
-11.9701

>  <SCORE.INTER.CONST>
1

>  <SCORE.INTER.POLAR>
-0.994817

>  <SCORE.INTER.ROT>
9

>  <SCORE.INTER.SOLV>
18.7163

>  <SCORE.INTER.VDW>
-20.5028

>  <SCORE.INTER.norm>
-0.285003

>  <SCORE.INTRA>
-1.83992

>  <SCORE.INTRA.DIHEDRAL>
-5.13348

>  <SCORE.INTRA.DIHEDRAL.0>
14.8538

>  <SCORE.INTRA.POLAR>
0

>  <SCORE.INTRA.POLAR.0>
0

>  <SCORE.INTRA.REPUL>
0

>  <SCORE.INTRA.REPUL.0>
0

>  <SCORE.INTRA.SOLV>
-0.228834

>  <SCORE.INTRA.SOLV.lig_0>
-100.951

>  <SCORE.INTRA.VDW>
0.841237

>  <SCORE.INTRA.VDW.0>
-5.71388

>  <SCORE.INTRA.norm>
-0.0438076

>  <SCORE.RESTR>
0.239566

>  <SCORE.RESTR.CAVITY>
0.239566

>  <SCORE.RESTR.norm>
0.00570395

>  <SCORE.SYSTEM>
0

>  <SCORE.SYSTEM.CONST>
0

>  <SCORE.SYSTEM.DIHEDRAL>
0

>  <SCORE.SYSTEM.SOLV>
0

>  <SCORE.SYSTEM.norm>
0

>  <SCORE.heavy>
42

>  <SCORE.norm>
-0.323107

>  <RMSD>
1.708

$$$$
3c44_lig
 OpenBabel11021811463D
libRbt.so/2013.1/901 2013/11/27
 42 45  0  0  0  0  0  0  0  0999 V2000
   36.7144   34.7932  -12.8109 C   0  0  2  0  0  0  0  0  0  0  0  0
   35.9334   34.5857  -13.9978 O   0  0  0  0  0  0  0  0  0  0  0  0
   32.3851   36.1717  -15.4413 C   0  0  2  0  0  0  0  0  0  0  0  0
   31.0418   36.6766  -15.7647 N   0  0  0  0  0  0  0  0  0  0  0  0
   36.0145   38.1892  -13.2206 C   0  0  1  0  0  0  0  0  0  0  0  0
   38.3199   41.5715  -14.1969 C   0  0  1  0  0  0  0  0  0  0  0  0
   38.2017   34.6964  -13.1666 C   0  0  2  0  0  0  0  0  0  0  0  0
   38.5414   35.6241  -14.2552 N   0  0  0  0  0  0  0  0  0  0  0  0
   32.3253   34.6935  -15.0457 C   0  0  0  0  0  0  0  0  0  0  0  0
   35.4527   39.5832  -12.9373 C   0  0  2  0  0  0  0  0  0  0  0  0
   34.6883   40.0380  -14.0556 O   0  0  0  0  0  0  0  0  0  0  0  0
   38.8486   41.7635  -15.6221 C   0  0  2  0  0  0  0  0  0  0  0  0
   39.3128   40.4618  -16.1214 N   0  0  0  0  0  0  0  0  0  0  0  0
   38.5826   33.2741  -13.5850 C   0  0  1  0  0  0  0  0  0  0  0  0
   40.0015   33.1964  -13.7527 O   0  0  0  0  0  0  0  0  0  0  0  0
   33.7651   34.1974  -14.8760 C   0  0  2  0  0  0  0  0  0  0  0  0
   33.7474   32.7944  -14.4353 N   0  0  0  0  0  0  0  0  0  0  0  0
   36.7558   40.3777  -12.8759 C   0  0  2  0  0  0  0  0  0  0  0  0
   37.3195   40.5379  -14.1880 O   0  0  0  0  0  0  0  0  0  0  0  0
   40.0217   42.7519  -15.6491 C   0  0  1  0  0  0  0  0  0  0  0  0
   39.5608   44.0809  -15.3919 O   0  0  0  0  0  0  0  0  0  0  0  0
   38.1399   32.2804  -12.5094 C   0  0  2  0  0  0  0  0  0  0  0  0
   38.3980   30.9457  -12.9530 O   0  0  0  0  0  0  0  0  0  0  0  0
   34.5698   35.0237  -13.8650 C   0  0  2  0  0  0  0  0  0  0  0  0
   37.6213   39.4280  -12.0630 C   0  0  2  0  0  0  0  0  0  0  0  0
   37.1509   38.0915  -12.3422 O   0  0  0  0  0  0  0  0  0  0  0  0
   41.0737   42.3851  -14.6010 C   0  0  2  0  0  0  0  0  0  0  0  0
   41.6948   41.1538  -14.9809 O   0  0  0  0  0  0  0  0  0  0  0  0
   36.6446   32.4528  -12.2376 C   0  0  2  0  0  0  0  0  0  0  0  0
   36.3673   33.8049  -11.8229 O   0  0  0  0  0  0  0  0  0  0  0  0
   34.4708   36.5341  -14.0691 C   0  0  2  0  0  0  0  0  0  0  0  0
   35.0093   37.2059  -12.9186 O   0  0  0  0  0  0  0  0  0  0  0  0
   37.4840   39.7596  -10.5755 C   0  0  0  0  0  0  0  0  0  0  0  0
   36.1494   39.4704  -10.1534 O   0  0  0  0  0  0  0  0  0  0  0  0
   40.3901   42.2412  -13.2387 C   0  0  1  0  0  0  0  0  0  0  0  0
   39.4046   41.1975  -13.3326 O   0  0  0  0  0  0  0  0  0  0  0  0
   36.2593   31.4747  -11.1248 C   0  0  0  0  0  0  0  0  0  0  0  0
   34.7970   31.4217  -10.9837 O   0  0  0  0  0  0  0  0  0  0  0  0
   33.0157   36.9628  -14.2924 C   0  0  1  0  0  0  0  0  0  0  0  0
   32.9557   38.3638  -14.5694 O   0  0  0  0  0  0  0  0  0  0  0  0
   41.3815   41.8944  -12.1273 C   0  0  0  0  0  0  0  0  0  0  0  0
   41.8071   40.4959  -12.2777 N   0  0  0  0  0  0  0  0  0  0  0  0
  1  2  1  6  0  0  0
  1  7  1  0  0  0  0
  1 30  1  0  0  0  0
  3  4  1  1  0  0  0
  3  9  1  0  0  0  0
  3 39  1  0  0  0  0
  5 10  1  0  0  0  0
  5 26  1  0  0  0  0
  5 32  1  1  0  0  0
  6 12  1  0  0  0  0
  6 36  1  0  0  0  0
  6 19  1  6  0  0  0
  7  8  1  6  0  0  0
  7 14  1  0  0  0  0
  9 16  1  0  0  0  0
 10 11  1  6  0  0  0
 10 18  1  0  0  0  0
 12 13  1  1  0  0  0
 12 20  1  0  0  0  0
 14 15  1  1  0  0  0
 14 22  1  0  0  0  0
 16 17  1  1  0  0  0
 16 24  1  0  0  0  0
 18 19  1  6  0  0  0
 18 25  1  0  0  0  0
 20 21  1  1  0  0  0
 20 27  1  0  0  0  0
 22 23  1  6  0  0  0
 22 29  1  0  0  0  0
 24  2  1  6  0  0  0
 24 31  1  0  0  0  0
 25 26  1  0  0  0  0
 25 33  1  1  0  0  0
 27 28  1  6  0  0  0
 27 35  1  0  0  0  0
 29 30  1  0  0  0  0
 29 37  1  1  0  0  0
 31 32  1  1  0  0  0
 31 39  1  0  0  0  0
 33 34  1  0  0  0  0
 35 36  1  0  0  0  0
 35 41  1  1  0  0  0
 37 38  1  0  0  0  0
 39 40  1  6  0  0  0
 41 42  1  0  0  0  0
M  END
>  <CHROM.1>
-163.33494451,110.50234027,-177.18316759,164.15049892,-154.89889050,66.43683970
-169.97948877,127.40756885,-73.00171440,36.96868075,37.43814409,-13.51357689
-2.04924985,-0.20524907,-0.19797146

>  <Name>
3c44_lig

>  <RI>
0

>  <Rbt.Current_Directory>
/home/itssahil/PROJECTS/Mol_Feturizer/New_Systems/rnas/3c44

>  <Rbt.Executable>
rbdock ($Id: //depot/dev/client3/rdock/2013.1/src/exe/rbdock.cxx#4 $)

>  <Rbt.Library>
libRbt.so (2013.1, Build901 2013/11/27)

>  <Rbt.Parameter_File>
/export/apps/rDock/src/rDock_2013.1_src/data/scripts/dock_solv.prm

>  <Rbt.Receptor>
prm/pocket_docking_5.prm

>  <SCORE>
-17.272

>  <SCORE.INTER>
-21.0294

>  <SCORE.INTER.CONST>
1

>  <SCORE.INTER.POLAR>
-1.8442

>  <SCORE.INTER.ROT>
9

>  <SCORE.INTER.SOLV>
17.5052

>  <SCORE.INTER.VDW>
-23.3074

>  <SCORE.INTER.norm>
-0.500701

>  <SCORE.INTRA>
3.75739

>  <SCORE.INTRA.DIHEDRAL>
5.25837

>  <SCORE.INTRA.DIHEDRAL.0>
14.8538

>  <SCORE.INTRA.POLAR>
0

>  <SCORE.INTRA.POLAR.0>
0

>  <SCORE.INTRA.REPUL>
0

>  <SCORE.INTRA.REPUL.0>
0

>  <SCORE.INTRA.SOLV>
-0.00689549

>  <SCORE.INTRA.SOLV.lig_0>
-100.951

>  <SCORE.INTRA.VDW>
1.13165

>  <SCORE.INTRA.VDW.0>
-5.71388

>  <SCORE.INTRA.norm>
0.0894617

>  <SCORE.RESTR>
0

>  <SCORE.RESTR.CAVITY>
0

>  <SCORE.RESTR.norm>
0

>  <SCORE.SYSTEM>
0

>  <SCORE.SYSTEM.CONST>
0

>  <SCORE.SYSTEM.DIHEDRAL>
0

>  <SCORE.SYSTEM.SOLV>
0

>  <SCORE.SYSTEM.norm>
0

>  <SCORE.heavy>
42

>  <SCORE.norm>
-0.411239

>  <RMSD>
1.720

$$$$
3c44_lig
 OpenBabel11021811463D
libRbt.so/2013.1/901 2013/11/27
 42 45  0  0  0  0  0  0  0  0999 V2000
   36.4640   35.1576  -13.2675 C   0  0  2  0  0  0  0  0  0  0  0  0
   35.7455   34.8150  -14.4626 O   0  0  0  0  0  0  0  0  0  0  0  0
   32.2136   36.3141  -16.0334 C   0  0  2  0  0  0  0  0  0  0  0  0
   30.8663   36.7635  -16.4164 N   0  0  0  0  0  0  0  0  0  0  0  0
   35.5772   38.2520  -13.3222 C   0  0  1  0  0  0  0  0  0  0  0  0
   38.1455   41.4470  -13.6439 C   0  0  1  0  0  0  0  0  0  0  0  0
   37.9542   35.2885  -13.5992 C   0  0  2  0  0  0  0  0  0  0  0  0
   38.1647   36.2427  -14.6975 N   0  0  0  0  0  0  0  0  0  0  0  0
   32.2296   34.8019  -15.7917 C   0  0  0  0  0  0  0  0  0  0  0  0
   35.0254   39.5831  -12.8095 C   0  0  2  0  0  0  0  0  0  0  0  0
   34.2855   40.2355  -13.8433 O   0  0  0  0  0  0  0  0  0  0  0  0
   37.8338   42.7988  -12.9934 C   0  0  2  0  0  0  0  0  0  0  0  0
   36.8388   43.4918  -13.8234 N   0  0  0  0  0  0  0  0  0  0  0  0
   38.5587   33.9371  -13.9886 C   0  0  1  0  0  0  0  0  0  0  0  0
   39.9751   34.0787  -14.1336 O   0  0  0  0  0  0  0  0  0  0  0  0
   33.6841   34.3832  -15.5523 C   0  0  2  0  0  0  0  0  0  0  0  0
   33.7331   32.9437  -15.2550 N   0  0  0  0  0  0  0  0  0  0  0  0
   36.3356   40.3372  -12.5909 C   0  0  2  0  0  0  0  0  0  0  0  0
   36.9238   40.7152  -13.8463 O   0  0  0  0  0  0  0  0  0  0  0  0
   39.0927   43.6704  -12.8971 C   0  0  1  0  0  0  0  0  0  0  0  0
   39.9911   43.1433  -11.9173 O   0  0  0  0  0  0  0  0  0  0  0  0
   38.2569   32.9016  -12.9037 C   0  0  2  0  0  0  0  0  0  0  0  0
   38.7269   31.6172  -13.3215 O   0  0  0  0  0  0  0  0  0  0  0  0
   34.3479   35.1494  -14.4014 C   0  0  2  0  0  0  0  0  0  0  0  0
   37.1767   39.2490  -11.9423 C   0  0  2  0  0  0  0  0  0  0  0  0
   36.6970   37.9879  -12.4569 O   0  0  0  0  0  0  0  0  0  0  0  0
   39.8178   43.7392  -14.2421 C   0  0  2  0  0  0  0  0  0  0  0  0
   39.0056   44.4662  -15.1683 O   0  0  0  0  0  0  0  0  0  0  0  0
   36.7486   32.8430  -12.6573 C   0  0  2  0  0  0  0  0  0  0  0  0
   36.2575   34.1411  -12.2689 O   0  0  0  0  0  0  0  0  0  0  0  0
   34.1569   36.6634  -14.4632 C   0  0  2  0  0  0  0  0  0  0  0  0
   34.5564   37.2448  -13.2113 O   0  0  0  0  0  0  0  0  0  0  0  0
   37.0169   39.3191  -10.4221 C   0  0  0  0  0  0  0  0  0  0  0  0
   36.5548   38.0547   -9.9419 O   0  0  0  0  0  0  0  0  0  0  0  0
   40.0631   42.3155  -14.7489 C   0  0  1  0  0  0  0  0  0  0  0  0
   38.7904   41.6643  -14.9090 O   0  0  0  0  0  0  0  0  0  0  0  0
   36.5005   31.8323  -11.5346 C   0  0  0  0  0  0  0  0  0  0  0  0
   36.6105   32.4940  -10.2266 O   0  0  0  0  0  0  0  0  0  0  0  0
   32.6962   37.0198  -14.7637 C   0  0  1  0  0  0  0  0  0  0  0  0
   32.5575   38.4354  -14.9054 O   0  0  0  0  0  0  0  0  0  0  0  0
   40.8062   42.2967  -16.0852 C   0  0  0  0  0  0  0  0  0  0  0  0
   42.0888   42.9980  -15.9355 N   0  0  0  0  0  0  0  0  0  0  0  0
  1  2  1  6  0  0  0
  1  7  1  0  0  0  0
  1 30  1  0  0  0  0
  3  4  1  1  0  0  0
  3  9  1  0  0  0  0
  3 39  1  0  0  0  0
  5 10  1  0  0  0  0
  5 26  1  0  0  0  0
  5 32  1  1  0  0  0
  6 12  1  0  0  0  0
  6 36  1  0  0  0  0
  6 19  1  6  0  0  0
  7  8  1  6  0  0  0
  7 14  1  0  0  0  0
  9 16  1  0  0  0  0
 10 11  1  6  0  0  0
 10 18  1  0  0  0  0
 12 13  1  6  0  0  0
 12 20  1  0  0  0  0
 14 15  1  1  0  0  0
 14 22  1  0  0  0  0
 16 17  1  1  0  0  0
 16 24  1  0  0  0  0
 18 19  1  6  0  0  0
 18 25  1  0  0  0  0
 20 21  1  1  0  0  0
 20 27  1  0  0  0  0
 22 23  1  6  0  0  0
 22 29  1  0  0  0  0
 24  2  1  6  0  0  0
 24 31  1  0  0  0  0
 25 26  1  0  0  0  0
 25 33  1  1  0  0  0
 27 28  1  6  0  0  0
 27 35  1  0  0  0  0
 29 30  1  0  0  0  0
 29 37  1  1  0  0  0
 31 32  1  1  0  0  0
 31 39  1  0  0  0  0
 33 34  1  0  0  0  0
 35 36  1  0  0  0  0
 35 41  1  6  0  0  0
 37 38  1  0  0  0  0
 39 40  1  6  0  0  0
 41 42  1  0  0  0  0
M  END
>  <CHROM.1>
-158.04457312,118.34572758,-67.07492732,178.94734300,-164.73602731,123.24962612
86.68332946,123.29526695,58.06067191,36.66022031,37.87061721,-13.67501711
-1.96389347,-0.28230562,-0.15350425

>  <Name>
3c44_lig

>  <RI>
0

>  <Rbt.Current_Directory>
/home/itssahil/PROJECTS/Mol_Feturizer/New_Systems/rnas/3c44

>  <Rbt.Executable>
rbdock ($Id: //depot/dev/client3/rdock/2013.1/src/exe/rbdock.cxx#4 $)

>  <Rbt.Library>
libRbt.so (2013.1, Build901 2013/11/27)

>  <Rbt.Parameter_File>
/export/apps/rDock/src/rDock_2013.1_src/data/scripts/dock_solv.prm

>  <Rbt.Receptor>
prm/pocket_docking_2.prm

>  <SCORE>
-11.3627

>  <SCORE.INTER>
-18.9486

>  <SCORE.INTER.CONST>
1

>  <SCORE.INTER.POLAR>
-2.3544

>  <SCORE.INTER.ROT>
9

>  <SCORE.INTER.SOLV>
17.5445

>  <SCORE.INTER.VDW>
-20.2325

>  <SCORE.INTER.norm>
-0.451156

>  <SCORE.INTRA>
6.41512

>  <SCORE.INTRA.DIHEDRAL>
10.6253

>  <SCORE.INTRA.DIHEDRAL.0>
14.8538

>  <SCORE.INTRA.POLAR>
0

>  <SCORE.INTRA.POLAR.0>
0

>  <SCORE.INTRA.REPUL>
0

>  <SCORE.INTRA.REPUL.0>
0

>  <SCORE.INTRA.SOLV>
-1.45192

>  <SCORE.INTRA.SOLV.lig_0>
-100.951

>  <SCORE.INTRA.VDW>
1.82844

>  <SCORE.INTRA.VDW.0>
-5.71388

>  <SCORE.INTRA.norm>
0.152741

>  <SCORE.RESTR>
1.17078

>  <SCORE.RESTR.CAVITY>
1.17078

>  <SCORE.RESTR.norm>
0.0278756

>  <SCORE.SYSTEM>
0

>  <SCORE.SYSTEM.CONST>
0

>  <SCORE.SYSTEM.DIHEDRAL>
0

>  <SCORE.SYSTEM.SOLV>
0

>  <SCORE.SYSTEM.norm>
0

>  <SCORE.heavy>
42

>  <SCORE.norm>
-0.270539

>  <RMSD>
1.728

$$$$
3c44_lig
 OpenBabel11021811463D
libRbt.so/2013.1/901 2013/11/27
 42 45  0  0  0  0  0  0  0  0999 V2000
   37.3823   34.7778  -12.5630 C   0  0  2  0  0  0  0  0  0  0  0  0
   36.5178   34.7561  -13.7093 O   0  0  0  0  0  0  0  0  0  0  0  0
   33.2122   37.0378  -14.7371 C   0  0  2  0  0  0  0  0  0  0  0  0
   31.9488   37.7677  -14.9242 N   0  0  0  0  0  0  0  0  0  0  0  0
   37.0766   38.1348  -12.2950 C   0  0  1  0  0  0  0  0  0  0  0  0
   38.2839   41.8923  -12.7895 C   0  0  1  0  0  0  0  0  0  0  0  0
   38.8215   34.5106  -13.0160 C   0  0  2  0  0  0  0  0  0  0  0  0
   39.2247   35.4573  -14.0659 N   0  0  0  0  0  0  0  0  0  0  0  0
   32.9532   35.5336  -14.6132 C   0  0  0  0  0  0  0  0  0  0  0  0
   36.8042   39.4032  -11.4850 C   0  0  2  0  0  0  0  0  0  0  0  0
   35.9912   40.3012  -12.2428 O   0  0  0  0  0  0  0  0  0  0  0  0
   38.5169   42.3671  -14.2276 C   0  0  2  0  0  0  0  0  0  0  0  0
   39.9034   42.0522  -14.5985 N   0  0  0  0  0  0  0  0  0  0  0  0
   38.9834   33.0823  -13.5422 C   0  0  1  0  0  0  0  0  0  0  0  0
   40.3676   32.8300  -13.8024 O   0  0  0  0  0  0  0  0  0  0  0  0
   34.3126   34.8274  -14.5786 C   0  0  2  0  0  0  0  0  0  0  0  0
   34.1058   33.3825  -14.3981 N   0  0  0  0  0  0  0  0  0  0  0  0
   38.2213   39.9679  -11.4077 C   0  0  2  0  0  0  0  0  0  0  0  0
   38.6296   40.5005  -12.6784 O   0  0  0  0  0  0  0  0  0  0  0  0
   38.3019   43.8811  -14.3526 C   0  0  1  0  0  0  0  0  0  0  0  0
   36.9138   44.2004  -14.2251 O   0  0  0  0  0  0  0  0  0  0  0  0
   38.4687   32.0847  -12.5028 C   0  0  2  0  0  0  0  0  0  0  0  0
   38.5196   30.7609  -13.0411 O   0  0  0  0  0  0  0  0  0  0  0  0
   35.2274   35.3402  -13.4593 C   0  0  2  0  0  0  0  0  0  0  0  0
   39.0085   38.7014  -11.1104 C   0  0  2  0  0  0  0  0  0  0  0  0
   38.2832   37.6077  -11.7129 O   0  0  0  0  0  0  0  0  0  0  0  0
   39.0811   44.6377  -13.2755 C   0  0  2  0  0  0  0  0  0  0  0  0
   40.4810   44.4993  -13.5348 O   0  0  0  0  0  0  0  0  0  0  0  0
   37.0274   32.4335  -12.1284 C   0  0  2  0  0  0  0  0  0  0  0  0
   36.9583   33.7790  -11.6166 O   0  0  0  0  0  0  0  0  0  0  0  0
   35.3343   36.8619  -13.3843 C   0  0  2  0  0  0  0  0  0  0  0  0
   35.9649   37.2341  -12.1480 O   0  0  0  0  0  0  0  0  0  0  0  0
   39.1237   38.5165   -9.5958 C   0  0  0  0  0  0  0  0  0  0  0  0
   39.5932   39.7331   -9.0107 O   0  0  0  0  0  0  0  0  0  0  0  0
   38.7309   44.0532  -11.9045 C   0  0  1  0  0  0  0  0  0  0  0  0
   39.1015   42.6632  -11.8947 O   0  0  0  0  0  0  0  0  0  0  0  0
   36.5736   31.4413  -11.0546 C   0  0  0  0  0  0  0  0  0  0  0  0
   35.1172   31.5249  -10.8736 O   0  0  0  0  0  0  0  0  0  0  0  0
   33.9502   37.5142  -13.4835 C   0  0  1  0  0  0  0  0  0  0  0  0
   34.0807   38.9375  -13.5011 O   0  0  0  0  0  0  0  0  0  0  0  0
   39.4560   44.7722  -10.7663 C   0  0  0  0  0  0  0  0  0  0  0  0
   38.9212   44.3041   -9.4800 N   0  0  0  0  0  0  0  0  0  0  0  0
  1  2  1  6  0  0  0
  1  7  1  0  0  0  0
  1 30  1  0  0  0  0
  3  4  1  1  0  0  0
  3  9  1  0  0  0  0
  3 39  1  0  0  0  0
  5 10  1  0  0  0  0
  5 26  1  0  0  0  0
  5 32  1  1  0  0  0
  6 12  1  0  0  0  0
  6 36  1  0  0  0  0
  6 19  1  6  0  0  0
  7  8  1  6  0  0  0
  7 14  1  0  0  0  0
  9 16  1  0  0  0  0
 10 11  1  6  0  0  0
 10 18  1  0  0  0  0
 12 13  1  1  0  0  0
 12 20  1  0  0  0  0
 14 15  1  1  0  0  0
 14 22  1  0  0  0  0
 16 17  1  1  0  0  0
 16 24  1  0  0  0  0
 18 19  1  6  0  0  0
 18 25  1  0  0  0  0
 20 21  1  1  0  0  0
 20 27  1  0  0  0  0
 22 23  1  6  0  0  0
 22 29  1  0  0  0  0
 24  2  1  6  0  0  0
 24 31  1  0  0  0  0
 25 26  1  0  0  0  0
 25 33  1  1  0  0  0
 27 28  1  6  0  0  0
 27 35  1  0  0  0  0
 29 30  1  0  0  0  0
 29 37  1  1  0  0  0
 31 32  1  1  0  0  0
 31 39  1  0  0  0  0
 33 34  1  0  0  0  0
 35 36  1  0  0  0  0
 35 41  1  1  0  0  0
 37 38  1  0  0  0  0
 39 40  1  6  0  0  0
 41 42  1  0  0  0  0
M  END
>  <CHROM.1>
-164.28721875,122.08269538,-170.62590075,90.21293555,-161.67151630,-50.40838762
-167.17576846,128.60843870,171.34907273,37.29124490,37.94645883,-12.68672488
-1.80996711,-0.42845931,-0.05161786

>  <Name>
3c44_lig

>  <RI>
0

>  <Rbt.Current_Directory>
/home/itssahil/PROJECTS/Mol_Feturizer/New_Systems/rnas/3c44

>  <Rbt.Executable>
rbdock ($Id: //depot/dev/client3/rdock/2013.1/src/exe/rbdock.cxx#4 $)

>  <Rbt.Library>
libRbt.so (2013.1, Build901 2013/11/27)

>  <Rbt.Parameter_File>
/export/apps/rDock/src/rDock_2013.1_src/data/scripts/dock_solv.prm

>  <Rbt.Receptor>
prm/pocket_docking_4.prm

>  <SCORE>
-17.1023

>  <SCORE.INTER>
-19.9252

>  <SCORE.INTER.CONST>
1

>  <SCORE.INTER.POLAR>
-1.13406

>  <SCORE.INTER.ROT>
9

>  <SCORE.INTER.SOLV>
20.8268

>  <SCORE.INTER.VDW>
-26.0456

>  <SCORE.INTER.norm>
-0.47441

>  <SCORE.INTRA>
2.82296

>  <SCORE.INTRA.DIHEDRAL>
7.00675

>  <SCORE.INTRA.DIHEDRAL.0>
14.8538

>  <SCORE.INTRA.POLAR>
0

>  <SCORE.INTRA.POLAR.0>
0

>  <SCORE.INTRA.REPUL>
0

>  <SCORE.INTRA.REPUL.0>
0

>  <SCORE.INTRA.SOLV>
-3.19596

>  <SCORE.INTRA.SOLV.lig_0>
-100.951

>  <SCORE.INTRA.VDW>
0.917566

>  <SCORE.INTRA.VDW.0>
-5.71388

>  <SCORE.INTRA.norm>
0.0672134

>  <SCORE.RESTR>
0

>  <SCORE.RESTR.CAVITY>
0

>  <SCORE.RESTR.norm>
0

>  <SCORE.SYSTEM>
0

>  <SCORE.SYSTEM.CONST>
0

>  <SCORE.SYSTEM.DIHEDRAL>
0

>  <SCORE.SYSTEM.SOLV>
0

>  <SCORE.SYSTEM.norm>
0

>  <SCORE.heavy>
42

>  <SCORE.norm>
-0.407197

>  <RMSD>
1.852

$$$$
3c44_lig
 OpenBabel11021811463D
libRbt.so/2013.1/901 2013/11/27
 42 45  0  0  0  0  0  0  0  0999 V2000
   37.3135   34.0106  -12.8000 C   0  0  2  0  0  0  0  0  0  0  0  0
   36.2424   33.7184  -13.7105 O   0  0  0  0  0  0  0  0  0  0  0  0
   33.2084   36.3321  -14.7844 C   0  0  2  0  0  0  0  0  0  0  0  0
   32.0417   37.2068  -14.9779 N   0  0  0  0  0  0  0  0  0  0  0  0
   36.8963   37.5501  -12.5028 C   0  0  1  0  0  0  0  0  0  0  0  0
   39.1137   40.9837  -12.5579 C   0  0  1  0  0  0  0  0  0  0  0  0
   38.6114   33.4024  -13.3418 C   0  0  2  0  0  0  0  0  0  0  0  0
   38.8729   33.8623  -14.7134 N   0  0  0  0  0  0  0  0  0  0  0  0
   32.7643   34.8902  -14.5216 C   0  0  0  0  0  0  0  0  0  0  0  0
   37.5446   37.9021  -11.1631 C   0  0  2  0  0  0  0  0  0  0  0  0
   36.6261   38.6408  -10.3554 O   0  0  0  0  0  0  0  0  0  0  0  0
   40.0357   41.4031  -11.4082 C   0  0  2  0  0  0  0  0  0  0  0  0
   39.2080   41.9796  -10.3397 N   0  0  0  0  0  0  0  0  0  0  0  0
   38.5570   31.8727  -13.3296 C   0  0  1  0  0  0  0  0  0  0  0  0
   39.8399   31.3526  -13.6914 O   0  0  0  0  0  0  0  0  0  0  0  0
   34.0210   34.0141  -14.4861 C   0  0  2  0  0  0  0  0  0  0  0  0
   33.6392   32.6285  -14.1743 N   0  0  0  0  0  0  0  0  0  0  0  0
   38.6424   38.8463  -11.6492 C   0  0  2  0  0  0  0  0  0  0  0  0
   38.0880   40.1071  -12.0592 O   0  0  0  0  0  0  0  0  0  0  0  0
   41.0528   42.4551  -11.8696 C   0  0  1  0  0  0  0  0  0  0  0  0
   42.0216   41.8647  -12.7401 O   0  0  0  0  0  0  0  0  0  0  0  0
   38.1805   31.3779  -11.9318 C   0  0  2  0  0  0  0  0  0  0  0  0
   38.0232   29.9567  -11.9515 O   0  0  0  0  0  0  0  0  0  0  0  0
   35.0537   34.4870  -13.4553 C   0  0  2  0  0  0  0  0  0  0  0  0
   39.1395   38.0882  -12.8699 C   0  0  2  0  0  0  0  0  0  0  0  0
   38.0166   37.3383  -13.3818 O   0  0  0  0  0  0  0  0  0  0  0  0
   40.3608   43.6011  -12.6096 C   0  0  2  0  0  0  0  0  0  0  0  0
   39.5562   44.3323  -11.6800 O   0  0  0  0  0  0  0  0  0  0  0  0
   36.8715   32.0349  -11.4914 C   0  0  2  0  0  0  0  0  0  0  0  0
   37.0075   33.4697  -11.5012 O   0  0  0  0  0  0  0  0  0  0  0  0
   35.3603   35.9820  -13.5150 C   0  0  2  0  0  0  0  0  0  0  0  0
   36.0998   36.3631  -12.3434 O   0  0  0  0  0  0  0  0  0  0  0  0
   40.2823   37.1564  -12.4609 C   0  0  0  0  0  0  0  0  0  0  0  0
   40.8185   36.5332  -13.6302 O   0  0  0  0  0  0  0  0  0  0  0  0
   39.4914   43.0190  -13.7272 C   0  0  1  0  0  0  0  0  0  0  0  0
   38.5085   42.1523  -13.1339 O   0  0  0  0  0  0  0  0  0  0  0  0
   36.5618   31.5482  -10.0735 C   0  0  0  0  0  0  0  0  0  0  0  0
   36.1751   30.1302  -10.1000 O   0  0  0  0  0  0  0  0  0  0  0  0
   34.0688   36.8031  -13.6091 C   0  0  1  0  0  0  0  0  0  0  0  0
   34.3809   38.1905  -13.7536 O   0  0  0  0  0  0  0  0  0  0  0  0
   38.7786   44.1064  -14.5321 C   0  0  0  0  0  0  0  0  0  0  0  0
   39.7806   44.9550  -15.1920 N   0  0  0  0  0  0  0  0  0  0  0  0
  1  2  1  6  0  0  0
  1  7  1  0  0  0  0
  1 30  1  0  0  0  0
  3  4  1  1  0  0  0
  3  9  1  0  0  0  0
  3 39  1  0  0  0  0
  5 10  1  0  0  0  0
  5 26  1  0  0  0  0
  5 32  1  1  0  0  0
  6 12  1  0  0  0  0
  6 36  1  0  0  0  0
  6 19  1  1  0  0  0
  7  8  1  6  0  0  0
  7 14  1  0  0  0  0
  9 16  1  0  0  0  0
 10 11  1  1  0  0  0
 10 18  1  0  0  0  0
 12 13  1  1  0  0  0
 12 20  1  0  0  0  0
 14 15  1  1  0  0  0
 14 22  1  0  0  0  0
 16 17  1  1  0  0  0
 16 24  1  0  0  0  0
 18 19  1  6  0  0  0
 18 25  1  0  0  0  0
 20 21  1  6  0  0  0
 20 27  1  0  0  0  0
 22 23  1  6  0  0  0
 22 29  1  0  0  0  0
 24  2  1  6  0  0  0
 24 31  1  0  0  0  0
 25 26  1  0  0  0  0
 25 33  1  1  0  0  0
 27 28  1  1  0  0  0
 27 35  1  0  0  0  0
 29 30  1  0  0  0  0
 29 37  1  1  0  0  0
 31 32  1  1  0  0  0
 31 39  1  0  0  0  0
 33 34  1  0  0  0  0
 35 36  1  0  0  0  0
 35 41  1  1  0  0  0
 37 38  1  0  0  0  0
 39 40  1  6  0  0  0
 41 42  1  0  0  0  0
M  END
>  <CHROM.1>
-166.92562636,175.81637834,-68.20377930,-178.14831776,-178.36067125,-175.13183898
-70.51650292,156.25249593,62.49940160,37.56314703,37.04731745,-12.79511918
-1.89091629,-0.30062570,-0.10479955

>  <Name>
3c44_lig

>  <RI>
224

>  <Rbt.Current_Directory>
/home/itssahil/PROJECTS/Mol_Feturizer/New_Systems/rnas/3c44

>  <Rbt.Executable>
rbdock ($Id: //depot/dev/client3/rdock/2013.1/src/exe/rbdock.cxx#4 $)

>  <Rbt.Library>
libRbt.so (2013.1, Build901 2013/11/27)

>  <Rbt.Parameter_File>
/export/apps/rDock/src/rDock_2013.1_src/data/scripts/dock_solv.prm

>  <Rbt.Receptor>
prm/pocket_docking_3.prm

>  <SCORE>
-26.2937

>  <SCORE.INTER>
-22.5623

>  <SCORE.INTER.CONST>
1

>  <SCORE.INTER.POLAR>
-1.6382

>  <SCORE.INTER.ROT>
9

>  <SCORE.INTER.SOLV>
22.8378

>  <SCORE.INTER.VDW>
-26.7935

>  <SCORE.INTER.norm>
-0.537198

>  <SCORE.INTRA>
-3.80073

>  <SCORE.INTRA.DIHEDRAL>
-10.1682

>  <SCORE.INTRA.DIHEDRAL.0>
14.8538

>  <SCORE.INTRA.POLAR>
0

>  <SCORE.INTRA.POLAR.0>
0

>  <SCORE.INTRA.REPUL>
0

>  <SCORE.INTRA.REPUL.0>
0

>  <SCORE.INTRA.SOLV>
-3.39834

>  <SCORE.INTRA.SOLV.lig_0>
-100.951

>  <SCORE.INTRA.VDW>
2.98254

>  <SCORE.INTRA.VDW.0>
-5.71388

>  <SCORE.INTRA.norm>
-0.0904936

>  <SCORE.RESTR>
0.0693503

>  <SCORE.RESTR.CAVITY>
0.0693503

>  <SCORE.RESTR.norm>
0.0016512

>  <SCORE.SYSTEM>
0

>  <SCORE.SYSTEM.CONST>
0

>  <SCORE.SYSTEM.DIHEDRAL>
0

>  <SCORE.SYSTEM.SOLV>
0

>  <SCORE.SYSTEM.norm>
0

>  <SCORE.heavy>
42

>  <SCORE.norm>
-0.62604

>  <RMSD>
1.901

$$$$
3c44_lig
 OpenBabel11021811463D
libRbt.so/2013.1/901 2013/11/27
 42 45  0  0  0  0  0  0  0  0999 V2000
   37.0695   33.9768  -12.7571 C   0  0  2  0  0  0  0  0  0  0  0  0
   36.1041   33.6940  -13.7817 O   0  0  0  0  0  0  0  0  0  0  0  0
   32.9783   36.0736  -15.1071 C   0  0  2  0  0  0  0  0  0  0  0  0
   31.7751   36.8711  -15.3902 N   0  0  0  0  0  0  0  0  0  0  0  0
   36.5975   37.5573  -12.8037 C   0  0  1  0  0  0  0  0  0  0  0  0
   38.9006   40.8499  -13.1660 C   0  0  1  0  0  0  0  0  0  0  0  0
   38.4666   33.6147  -13.2717 C   0  0  2  0  0  0  0  0  0  0  0  0
   38.7505   34.2979  -14.5420 N   0  0  0  0  0  0  0  0  0  0  0  0
   32.6011   34.6269  -14.7752 C   0  0  0  0  0  0  0  0  0  0  0  0
   37.4115   37.8472  -11.5418 C   0  0  2  0  0  0  0  0  0  0  0  0
   36.6262   38.6017  -10.6168 O   0  0  0  0  0  0  0  0  0  0  0  0
   40.2252   40.8809  -12.3966 C   0  0  2  0  0  0  0  0  0  0  0  0
   39.9530   41.3394  -11.0274 N   0  0  0  0  0  0  0  0  0  0  0  0
   38.6114   32.1042  -13.4735 C   0  0  1  0  0  0  0  0  0  0  0  0
   39.9711   31.8006  -13.7995 O   0  0  0  0  0  0  0  0  0  0  0  0
   33.8999   33.8239  -14.6466 C   0  0  2  0  0  0  0  0  0  0  0  0
   33.5802   32.4395  -14.2671 N   0  0  0  0  0  0  0  0  0  0  0  0
   38.4860   38.7578  -12.1327 C   0  0  2  0  0  0  0  0  0  0  0  0
   37.9438   40.0506  -12.4485 O   0  0  0  0  0  0  0  0  0  0  0  0
   41.2241   41.8433  -13.0523 C   0  0  1  0  0  0  0  0  0  0  0  0
   41.6900   41.3094  -14.2944 O   0  0  0  0  0  0  0  0  0  0  0  0
   38.2167   31.3690  -12.1913 C   0  0  2  0  0  0  0  0  0  0  0  0
   38.2475   29.9574  -12.4181 O   0  0  0  0  0  0  0  0  0  0  0  0
   34.8683   34.4100  -13.6117 C   0  0  2  0  0  0  0  0  0  0  0  0
   38.8046   38.0120  -13.4189 C   0  0  2  0  0  0  0  0  0  0  0  0
   37.5981   37.3226  -13.8118 O   0  0  0  0  0  0  0  0  0  0  0  0
   40.5829   43.2072  -13.3133 C   0  0  2  0  0  0  0  0  0  0  0  0
   40.3174   43.8408  -12.0586 O   0  0  0  0  0  0  0  0  0  0  0  0
   36.8085   31.7926  -11.7711 C   0  0  2  0  0  0  0  0  0  0  0  0
   36.7566   33.2193  -11.5733 O   0  0  0  0  0  0  0  0  0  0  0  0
   35.0980   35.9137  -13.7485 C   0  0  2  0  0  0  0  0  0  0  0  0
   35.7735   36.4003  -12.5774 O   0  0  0  0  0  0  0  0  0  0  0  0
   39.9451   37.0235  -13.1661 C   0  0  0  0  0  0  0  0  0  0  0  0
   39.5105   36.0392  -12.2253 O   0  0  0  0  0  0  0  0  0  0  0  0
   39.2826   43.0045  -14.0956 C   0  0  1  0  0  0  0  0  0  0  0  0
   38.3993   42.1888  -13.3058 O   0  0  0  0  0  0  0  0  0  0  0  0
   36.4775   31.0704  -10.4625 C   0  0  0  0  0  0  0  0  0  0  0  0
   35.0250   31.0766  -10.2363 O   0  0  0  0  0  0  0  0  0  0  0  0
   33.7695   36.6567  -13.9335 C   0  0  1  0  0  0  0  0  0  0  0  0
   34.0135   38.0485  -14.1486 O   0  0  0  0  0  0  0  0  0  0  0  0
   38.5876   44.3283  -14.4166 C   0  0  0  0  0  0  0  0  0  0  0  0
   38.3639   45.0721  -13.1691 N   0  0  0  0  0  0  0  0  0  0  0  0
  1  2  1  6  0  0  0
  1  7  1  0  0  0  0
  1 30  1  0  0  0  0
  3  4  1  1  0  0  0
  3  9  1  0  0  0  0
  3 39  1  0  0  0  0
  5 10  1  0  0  0  0
  5 26  1  0  0  0  0
  5 32  1  1  0  0  0
  6 12  1  0  0  0  0
  6 36  1  0  0  0  0
  6 19  1  1  0  0  0
  7  8  1  6  0  0  0
  7 14  1  0  0  0  0
  9 16  1  0  0  0  0
 10 11  1  1  0  0  0
 10 18  1  0  0  0  0
 12 13  1  1  0  0  0
 12 20  1  0  0  0  0
 14 15  1  1  0  0  0
 14 22  1  0  0  0  0
 16 17  1  1  0  0  0
 16 24  1  0  0  0  0
 18 19  1  6  0  0  0
 18 25  1  0  0  0  0
 20 21  1  6  0  0  0
 20 27  1  0  0  0  0
 22 23  1  6  0  0  0
 22 29  1  0  0  0  0
 24  2  1  6  0  0  0
 24 31  1  0  0  0  0
 25 26  1  0  0  0  0
 25 33  1  1  0  0  0
 27 28  1  1  0  0  0
 27 35  1  0  0  0  0
 29 30  1  0  0  0  0
 29 37  1  1  0  0  0
 31 32  1  1  0  0  0
 31 39  1  0  0  0  0
 33 34  1  0  0  0  0
 35 36  1  0  0  0  0
 35 41  1  1  0  0  0
 37 38  1  0  0  0  0
 39 40  1  6  0  0  0
 41 42  1  0  0  0  0
M  END
>  <CHROM.1>
-159.20249638,-171.79142359,-52.21653310,-172.32285259,-171.26665047,63.92619152
-161.57723918,151.54123856,-55.41171322,37.37850074,36.94776109,-13.04769752
-1.91576937,-0.26591216,-0.11415918

>  <Name>
3c44_lig

>  <RI>
0

>  <Rbt.Current_Directory>
/home/itssahil/PROJECTS/Mol_Feturizer/New_Systems/rnas/3c44

>  <Rbt.Executable>
rbdock ($Id: //depot/dev/client3/rdock/2013.1/src/exe/rbdock.cxx#4 $)

>  <Rbt.Library>
libRbt.so (2013.1, Build901 2013/11/27)

>  <Rbt.Parameter_File>
/export/apps/rDock/src/rDock_2013.1_src/data/scripts/dock_solv.prm

>  <Rbt.Receptor>
prm/pocket_docking_2.prm

>  <SCORE>
-18.6237

>  <SCORE.INTER>
-19.9501

>  <SCORE.INTER.CONST>
1

>  <SCORE.INTER.POLAR>
-1.68951

>  <SCORE.INTER.ROT>
9

>  <SCORE.INTER.SOLV>
21.0743

>  <SCORE.INTER.VDW>
-24.2931

>  <SCORE.INTER.norm>
-0.475002

>  <SCORE.INTRA>
0.748137

>  <SCORE.INTRA.DIHEDRAL>
-6.61494

>  <SCORE.INTRA.DIHEDRAL.0>
14.8538

>  <SCORE.INTRA.POLAR>
0

>  <SCORE.INTRA.POLAR.0>
0

>  <SCORE.INTRA.REPUL>
0

>  <SCORE.INTRA.REPUL.0>
0

>  <SCORE.INTRA.SOLV>
1.16264

>  <SCORE.INTRA.SOLV.lig_0>
-100.951

>  <SCORE.INTRA.VDW>
3.47428

>  <SCORE.INTRA.VDW.0>
-5.71388

>  <SCORE.INTRA.norm>
0.0178128

>  <SCORE.RESTR>
0.578229

>  <SCORE.RESTR.CAVITY>
0.578229

>  <SCORE.RESTR.norm>
0.0137674

>  <SCORE.SYSTEM>
0

>  <SCORE.SYSTEM.CONST>
0

>  <SCORE.SYSTEM.DIHEDRAL>
0

>  <SCORE.SYSTEM.SOLV>
0

>  <SCORE.SYSTEM.norm>
0

>  <SCORE.heavy>
42

>  <SCORE.norm>
-0.443422

>  <RMSD>
1.906

$$$$
3c44_lig
 OpenBabel11021811463D
libRbt.so/2013.1/901 2013/11/27
 42 45  0  0  0  0  0  0  0  0999 V2000
   37.2005   33.9293  -12.6394 C   0  0  2  0  0  0  0  0  0  0  0  0
   36.2089   33.6193  -13.6306 O   0  0  0  0  0  0  0  0  0  0  0  0
   33.0943   36.0382  -14.9102 C   0  0  2  0  0  0  0  0  0  0  0  0
   31.8949   36.8468  -15.1779 N   0  0  0  0  0  0  0  0  0  0  0  0
   36.7168   37.4662  -12.5819 C   0  0  1  0  0  0  0  0  0  0  0  0
   39.0521   40.8836  -12.6232 C   0  0  1  0  0  0  0  0  0  0  0  0
   38.5888   33.6067  -13.2018 C   0  0  2  0  0  0  0  0  0  0  0  0
   38.8096   34.2975  -14.4805 N   0  0  0  0  0  0  0  0  0  0  0  0
   32.7100   34.5877  -14.6042 C   0  0  0  0  0  0  0  0  0  0  0  0
   37.4327   37.8092  -11.2746 C   0  0  2  0  0  0  0  0  0  0  0  0
   36.5724   38.5816  -10.4350 O   0  0  0  0  0  0  0  0  0  0  0  0
   39.8741   41.3062  -11.4011 C   0  0  2  0  0  0  0  0  0  0  0  0
   38.9563   41.8632  -10.3979 N   0  0  0  0  0  0  0  0  0  0  0  0
   38.7691   32.1009  -13.4097 C   0  0  1  0  0  0  0  0  0  0  0  0
   40.1249   31.8357  -13.7823 O   0  0  0  0  0  0  0  0  0  0  0  0
   34.0047   33.7760  -14.4912 C   0  0  2  0  0  0  0  0  0  0  0  0
   33.6783   32.3866  -14.1364 N   0  0  0  0  0  0  0  0  0  0  0  0
   38.5361   38.7159  -11.8161 C   0  0  2  0  0  0  0  0  0  0  0  0
   38.0023   39.9896  -12.2136 O   0  0  0  0  0  0  0  0  0  0  0  0
   40.9099   42.3751  -11.7732 C   0  0  1  0  0  0  0  0  0  0  0  0
   41.9528   41.8044  -12.5679 O   0  0  0  0  0  0  0  0  0  0  0  0
   38.4395   31.3551  -12.1154 C   0  0  2  0  0  0  0  0  0  0  0  0
   38.5022   29.9449  -12.3442 O   0  0  0  0  0  0  0  0  0  0  0  0
   34.9768   34.3384  -13.4466 C   0  0  2  0  0  0  0  0  0  0  0  0
   38.9571   37.9335  -13.0500 C   0  0  2  0  0  0  0  0  0  0  0  0
   37.7913   37.2138  -13.5063 O   0  0  0  0  0  0  0  0  0  0  0  0
   40.2631   43.5176  -12.5580 C   0  0  2  0  0  0  0  0  0  0  0  0
   39.3772   44.2308  -11.6904 O   0  0  0  0  0  0  0  0  0  0  0  0
   37.0350   31.7388  -11.6469 C   0  0  2  0  0  0  0  0  0  0  0  0
   36.9498   33.1635  -11.4462 O   0  0  0  0  0  0  0  0  0  0  0  0
   35.2141   35.8431  -13.5566 C   0  0  2  0  0  0  0  0  0  0  0  0
   35.8930   36.3051  -12.3774 O   0  0  0  0  0  0  0  0  0  0  0  0
   40.0883   36.9709  -12.6820 C   0  0  0  0  0  0  0  0  0  0  0  0
   41.2625   37.7255  -12.3740 O   0  0  0  0  0  0  0  0  0  0  0  0
   39.4932   42.9328  -13.7451 C   0  0  1  0  0  0  0  0  0  0  0  0
   38.4784   42.0485  -13.2376 O   0  0  0  0  0  0  0  0  0  0  0  0
   36.7695   31.0078  -10.3283 C   0  0  0  0  0  0  0  0  0  0  0  0
   35.3355   31.0499  -10.0080 O   0  0  0  0  0  0  0  0  0  0  0  0
   33.8893   36.5960  -13.7270 C   0  0  1  0  0  0  0  0  0  0  0  0
   34.1402   37.9903  -13.9172 O   0  0  0  0  0  0  0  0  0  0  0  0
   38.8316   44.0170  -14.5967 C   0  0  0  0  0  0  0  0  0  0  0  0
   37.7971   44.6928  -13.8013 N   0  0  0  0  0  0  0  0  0  0  0  0
  1  2  1  6  0  0  0
  1  7  1  0  0  0  0
  1 30  1  0  0  0  0
  3  4  1  1  0  0  0
  3  9  1  0  0  0  0
  3 39  1  0  0  0  0
  5 10  1  0  0  0  0
  5 26  1  0  0  0  0
  5 32  1  1  0  0  0
  6 12  1  0  0  0  0
  6 36  1  0  0  0  0
  6 19  1  1  0  0  0
  7  8  1  6  0  0  0
  7 14  1  0  0  0  0
  9 16  1  0  0  0  0
 10 11  1  1  0  0  0
 10 18  1  0  0  0  0
 12 13  1  1  0  0  0
 12 20  1  0  0  0  0
 14 15  1  1  0  0  0
 14 22  1  0  0  0  0
 16 17  1  1  0  0  0
 16 24  1  0  0  0  0
 18 19  1  6  0  0  0
 18 25  1  0  0  0  0
 20 21  1  6  0  0  0
 20 27  1  0  0  0  0
 22 23  1  6  0  0  0
 22 29  1  0  0  0  0
 24  2  1  6  0  0  0
 24 31  1  0  0  0  0
 25 26  1  0  0  0  0
 25 33  1  1  0  0  0
 27 28  1  1  0  0  0
 27 35  1  0  0  0  0
 29 30  1  0  0  0  0
 29 37  1  1  0  0  0
 31 32  1  1  0  0  0
 31 39  1  0  0  0  0
 33 34  1  0  0  0  0
 35 36  1  0  0  0  0
 35 41  1  1  0  0  0
 37 38  1  0  0  0  0
 39 40  1  6  0  0  0
 41 42  1  0  0  0  0
M  END
>  <CHROM.1>
-156.99954009,-177.17221045,-70.33870384,175.37462554,-174.19754486,-68.39957337
-165.28293486,151.87171086,-65.24505639,37.46181204,37.00305710,-12.78229698
-1.88926609,-0.30152113,-0.07829249

>  <Name>
3c44_lig

>  <RI>
224

>  <Rbt.Current_Directory>
/home/itssahil/PROJECTS/Mol_Feturizer/New_Systems/rnas/3c44

>  <Rbt.Executable>
rbdock ($Id: //depot/dev/client3/rdock/2013.1/src/exe/rbdock.cxx#4 $)

>  <Rbt.Library>
libRbt.so (2013.1, Build901 2013/11/27)

>  <Rbt.Parameter_File>
/export/apps/rDock/src/rDock_2013.1_src/data/scripts/dock_solv.prm

>  <Rbt.Receptor>
prm/pocket_docking_3.prm

>  <SCORE>
-23.6839

>  <SCORE.INTER>
-21.6479

>  <SCORE.INTER.CONST>
1

>  <SCORE.INTER.POLAR>
-1.64831

>  <SCORE.INTER.ROT>
9

>  <SCORE.INTER.SOLV>
24.2825

>  <SCORE.INTER.VDW>
-26.6317

>  <SCORE.INTER.norm>
-0.515427

>  <SCORE.INTRA>
-2.03603

>  <SCORE.INTRA.DIHEDRAL>
-6.88919

>  <SCORE.INTRA.DIHEDRAL.0>
14.8538

>  <SCORE.INTRA.POLAR>
0

>  <SCORE.INTRA.POLAR.0>
0

>  <SCORE.INTRA.REPUL>
0

>  <SCORE.INTRA.REPUL.0>
0

>  <SCORE.INTRA.SOLV>
-0.898241

>  <SCORE.INTRA.SOLV.lig_0>
-100.951

>  <SCORE.INTRA.VDW>
1.85768

>  <SCORE.INTRA.VDW.0>
-5.71388

>  <SCORE.INTRA.norm>
-0.048477

>  <SCORE.RESTR>
0

>  <SCORE.RESTR.CAVITY>
0

>  <SCORE.RESTR.norm>
0

>  <SCORE.SYSTEM>
0

>  <SCORE.SYSTEM.CONST>
0

>  <SCORE.SYSTEM.DIHEDRAL>
0

>  <SCORE.SYSTEM.SOLV>
0

>  <SCORE.SYSTEM.norm>
0

>  <SCORE.heavy>
42

>  <SCORE.norm>
-0.563904

>  <RMSD>
1.921

$$$$
3c44_lig
 OpenBabel11021811463D
libRbt.so/2013.1/901 2013/11/27
 42 45  0  0  0  0  0  0  0  0999 V2000
   36.5431   34.8922  -12.7879 C   0  0  2  0  0  0  0  0  0  0  0  0
   35.8288   34.6384  -14.0075 O   0  0  0  0  0  0  0  0  0  0  0  0
   32.3264   36.1917  -15.5918 C   0  0  2  0  0  0  0  0  0  0  0  0
   30.9891   36.6689  -15.9760 N   0  0  0  0  0  0  0  0  0  0  0  0
   35.6649   38.2181  -12.9906 C   0  0  1  0  0  0  0  0  0  0  0  0
   38.1559   41.3231  -13.7057 C   0  0  1  0  0  0  0  0  0  0  0  0
   38.0484   34.8521  -13.0715 C   0  0  2  0  0  0  0  0  0  0  0  0
   38.4021   35.7796  -14.1558 N   0  0  0  0  0  0  0  0  0  0  0  0
   32.3001   34.6883  -15.3014 C   0  0  0  0  0  0  0  0  0  0  0  0
   34.9967   39.3495  -13.7732 C   0  0  2  0  0  0  0  0  0  0  0  0
   35.0705   39.0834  -15.1751 O   0  0  0  0  0  0  0  0  0  0  0  0
   37.5716   42.7259  -13.9018 C   0  0  2  0  0  0  0  0  0  0  0  0
   37.1471   42.8574  -15.3024 N   0  0  0  0  0  0  0  0  0  0  0  0
   38.5060   33.4416  -13.4512 C   0  0  1  0  0  0  0  0  0  0  0  0
   39.9332   33.4201  -13.5506 O   0  0  0  0  0  0  0  0  0  0  0  0
   33.7440   34.2340  -15.0627 C   0  0  2  0  0  0  0  0  0  0  0  0
   33.7534   32.8039  -14.7194 N   0  0  0  0  0  0  0  0  0  0  0  0
   35.9523   40.4930  -13.4382 C   0  0  2  0  0  0  0  0  0  0  0  0
   37.1999   40.3375  -14.1342 O   0  0  0  0  0  0  0  0  0  0  0  0
   38.6153   43.8082  -13.5964 C   0  0  1  0  0  0  0  0  0  0  0  0
   38.8822   43.8625  -12.1926 O   0  0  0  0  0  0  0  0  0  0  0  0
   38.0527   32.4439  -12.3838 C   0  0  2  0  0  0  0  0  0  0  0  0
   38.3854   31.1155  -12.7957 O   0  0  0  0  0  0  0  0  0  0  0  0
   34.4425   35.0164  -13.9436 C   0  0  2  0  0  0  0  0  0  0  0  0
   36.1651   40.2499  -11.9523 C   0  0  2  0  0  0  0  0  0  0  0  0
   36.0181   38.8297  -11.7361 O   0  0  0  0  0  0  0  0  0  0  0  0
   39.9258   43.5321  -14.3355 C   0  0  2  0  0  0  0  0  0  0  0  0
   39.7079   43.6966  -15.7396 O   0  0  0  0  0  0  0  0  0  0  0  0
   36.5405   32.5581  -12.1855 C   0  0  2  0  0  0  0  0  0  0  0  0
   36.1893   33.9027  -11.8036 O   0  0  0  0  0  0  0  0  0  0  0  0
   34.2958   36.5327  -14.0525 C   0  0  2  0  0  0  0  0  0  0  0  0
   34.7257   37.1417  -12.8240 O   0  0  0  0  0  0  0  0  0  0  0  0
   35.1256   41.0383  -11.1527 C   0  0  0  0  0  0  0  0  0  0  0  0
   35.2948   42.4334  -11.4136 O   0  0  0  0  0  0  0  0  0  0  0  0
   40.3787   42.1023  -14.0285 C   0  0  1  0  0  0  0  0  0  0  0  0
   39.3583   41.1950  -14.4811 O   0  0  0  0  0  0  0  0  0  0  0  0
   36.1422   31.5787  -11.0784 C   0  0  0  0  0  0  0  0  0  0  0  0
   34.6843   31.3904  -11.0720 O   0  0  0  0  0  0  0  0  0  0  0  0
   32.8432   36.9230  -14.3502 C   0  0  1  0  0  0  0  0  0  0  0  0
   32.7451   38.3368  -14.5363 O   0  0  0  0  0  0  0  0  0  0  0  0
   41.6992   41.7531  -14.7161 C   0  0  0  0  0  0  0  0  0  0  0  0
   41.5410   41.8992  -16.1698 N   0  0  0  0  0  0  0  0  0  0  0  0
  1  2  1  6  0  0  0
  1  7  1  0  0  0  0
  1 30  1  0  0  0  0
  3  4  1  1  0  0  0
  3  9  1  0  0  0  0
  3 39  1  0  0  0  0
  5 10  1  0  0  0  0
  5 26  1  0  0  0  0
  5 32  1  1  0  0  0
  6 12  1  0  0  0  0
  6 36  1  0  0  0  0
  6 19  1  6  0  0  0
  7  8  1  6  0  0  0
  7 14  1  0  0  0  0
  9 16  1  0  0  0  0
 10 11  1  6  0  0  0
 10 18  1  0  0  0  0
 12 13  1  6  0  0  0
 12 20  1  0  0  0  0
 14 15  1  1  0  0  0
 14 22  1  0  0  0  0
 16 17  1  1  0  0  0
 16 24  1  0  0  0  0
 18 19  1  6  0  0  0
 18 25  1  0  0  0  0
 20 21  1  1  0  0  0
 20 27  1  0  0  0  0
 22 23  1  6  0  0  0
 22 29  1  0  0  0  0
 24  2  1  6  0  0  0
 24 31  1  0  0  0  0
 25 26  1  0  0  0  0
 25 33  1  1  0  0  0
 27 28  1  6  0  0  0
 27 35  1  0  0  0  0
 29 30  1  0  0  0  0
 29 37  1  1  0  0  0
 31 32  1  1  0  0  0
 31 39  1  0  0  0  0
 33 34  1  0  0  0  0
 35 36  1  0  0  0  0
 35 41  1  6  0  0  0
 37 38  1  0  0  0  0
 39 40  1  6  0  0  0
 41 42  1  0  0  0  0
M  END
>  <CHROM.1>
-163.58707696,63.03437162,-56.24802766,-173.35842192,-159.65640312,-61.38111866
-165.75331523,129.95005224,-59.18906239,36.53218727,37.79329307,-13.61681019
-1.90440061,-0.10278852,-0.12458808

>  <Name>
3c44_lig

>  <RI>
0

>  <Rbt.Current_Directory>
/home/itssahil/PROJECTS/Mol_Feturizer/New_Systems/rnas/3c44

>  <Rbt.Executable>
rbdock ($Id: //depot/dev/client3/rdock/2013.1/src/exe/rbdock.cxx#4 $)

>  <Rbt.Library>
libRbt.so (2013.1, Build901 2013/11/27)

>  <Rbt.Parameter_File>
/export/apps/rDock/src/rDock_2013.1_src/data/scripts/dock_solv.prm

>  <Rbt.Receptor>
prm/pocket_docking_2.prm

>  <SCORE>
-16.5288

>  <SCORE.INTER>
-20.9159

>  <SCORE.INTER.CONST>
1

>  <SCORE.INTER.POLAR>
-1.91238

>  <SCORE.INTER.ROT>
9

>  <SCORE.INTER.SOLV>
17.7721

>  <SCORE.INTER.VDW>
-23.0934

>  <SCORE.INTER.norm>
-0.497997

>  <SCORE.INTRA>
2.83681

>  <SCORE.INTRA.DIHEDRAL>
-3.55131

>  <SCORE.INTRA.DIHEDRAL.0>
14.8538

>  <SCORE.INTRA.POLAR>
0

>  <SCORE.INTRA.POLAR.0>
0

>  <SCORE.INTRA.REPUL>
0

>  <SCORE.INTRA.REPUL.0>
0

>  <SCORE.INTRA.SOLV>
-0.467723

>  <SCORE.INTRA.SOLV.lig_0>
-100.951

>  <SCORE.INTRA.VDW>
4.84633

>  <SCORE.INTRA.VDW.0>
-5.71388

>  <SCORE.INTRA.norm>
0.0675432

>  <SCORE.RESTR>
1.55022

>  <SCORE.RESTR.CAVITY>
1.55022

>  <SCORE.RESTR.norm>
0.0369099

>  <SCORE.SYSTEM>
0

>  <SCORE.SYSTEM.CONST>
0

>  <SCORE.SYSTEM.DIHEDRAL>
0

>  <SCORE.SYSTEM.SOLV>
0

>  <SCORE.SYSTEM.norm>
0

>  <SCORE.heavy>
42

>  <SCORE.norm>
-0.393544

>  <RMSD>
1.978

$$$$
3c44_lig
 OpenBabel11021811463D
libRbt.so/2013.1/901 2013/11/27
 42 45  0  0  0  0  0  0  0  0999 V2000
   36.5580   34.8758  -12.8758 C   0  0  2  0  0  0  0  0  0  0  0  0
   35.8254   34.6088  -14.0815 O   0  0  0  0  0  0  0  0  0  0  0  0
   32.3003   36.1585  -15.6181 C   0  0  2  0  0  0  0  0  0  0  0  0
   30.9572   36.6338  -15.9845 N   0  0  0  0  0  0  0  0  0  0  0  0
   35.6737   38.1798  -13.0537 C   0  0  1  0  0  0  0  0  0  0  0  0
   38.0653   41.4288  -13.9960 C   0  0  1  0  0  0  0  0  0  0  0  0
   38.0590   34.8110  -13.1770 C   0  0  2  0  0  0  0  0  0  0  0  0
   38.4110   35.7135  -14.2827 N   0  0  0  0  0  0  0  0  0  0  0  0
   32.2807   34.6544  -15.3311 C   0  0  0  0  0  0  0  0  0  0  0  0
   34.9965   39.3218  -13.8129 C   0  0  2  0  0  0  0  0  0  0  0  0
   35.0415   39.0679  -15.2184 O   0  0  0  0  0  0  0  0  0  0  0  0
   37.3577   42.7132  -14.4401 C   0  0  2  0  0  0  0  0  0  0  0  0
   36.9140   42.5388  -15.8300 N   0  0  0  0  0  0  0  0  0  0  0  0
   38.4939   33.3879  -13.5358 C   0  0  1  0  0  0  0  0  0  0  0  0
   39.9193   33.3459  -13.6522 O   0  0  0  0  0  0  0  0  0  0  0  0
   33.7284   34.2025  -15.1116 C   0  0  2  0  0  0  0  0  0  0  0  0
   33.7451   32.7717  -14.7719 N   0  0  0  0  0  0  0  0  0  0  0  0
   35.9647   40.4571  -13.4865 C   0  0  2  0  0  0  0  0  0  0  0  0
   37.1976   40.3013  -14.2081 O   0  0  0  0  0  0  0  0  0  0  0  0
   38.3035   43.9193  -14.3692 C   0  0  1  0  0  0  0  0  0  0  0  0
   38.5738   44.2624  -13.0076 O   0  0  0  0  0  0  0  0  0  0  0  0
   38.0413   32.4161  -12.4445 C   0  0  2  0  0  0  0  0  0  0  0  0
   38.3519   31.0761  -12.8355 O   0  0  0  0  0  0  0  0  0  0  0  0
   34.4392   34.9837  -13.9994 C   0  0  2  0  0  0  0  0  0  0  0  0
   36.2051   40.1996  -12.0073 C   0  0  2  0  0  0  0  0  0  0  0  0
   36.0546   38.7782  -11.8009 O   0  0  0  0  0  0  0  0  0  0  0  0
   39.6283   43.6210  -15.0732 C   0  0  2  0  0  0  0  0  0  0  0  0
   39.3874   43.4959  -16.4776 O   0  0  0  0  0  0  0  0  0  0  0  0
   36.5332   32.5536  -12.2298 C   0  0  2  0  0  0  0  0  0  0  0  0
   36.2040   33.9095  -11.8689 O   0  0  0  0  0  0  0  0  0  0  0  0
   34.2881   36.5000  -14.1028 C   0  0  2  0  0  0  0  0  0  0  0  0
   34.7320   37.1069  -12.8784 O   0  0  0  0  0  0  0  0  0  0  0  0
   35.1856   40.9861  -11.1805 C   0  0  0  0  0  0  0  0  0  0  0  0
   35.4534   42.3837  -11.3148 O   0  0  0  0  0  0  0  0  0  0  0  0
   40.2082   42.3199  -14.5121 C   0  0  1  0  0  0  0  0  0  0  0  0
   39.2692   41.2590  -14.7612 O   0  0  0  0  0  0  0  0  0  0  0  0
   36.1363   31.6002  -11.0998 C   0  0  0  0  0  0  0  0  0  0  0  0
   34.6835   31.3764  -11.1154 O   0  0  0  0  0  0  0  0  0  0  0  0
   32.8311   36.8879  -14.3814 C   0  0  1  0  0  0  0  0  0  0  0  0
   32.7277   38.3020  -14.5628 O   0  0  0  0  0  0  0  0  0  0  0  0
   41.5498   41.9607  -15.1520 C   0  0  0  0  0  0  0  0  0  0  0  0
   41.9116   40.5864  -14.7781 N   0  0  0  0  0  0  0  0  0  0  0  0
  1  2  1  6  0  0  0
  1  7  1  0  0  0  0
  1 30  1  0  0  0  0
  3  4  1  1  0  0  0
  3  9  1  0  0  0  0
  3 39  1  0  0  0  0
  5 10  1  0  0  0  0
  5 26  1  0  0  0  0
  5 32  1  1  0  0  0
  6 12  1  0  0  0  0
  6 36  1  0  0  0  0
  6 19  1  6  0  0  0
  7  8  1  6  0  0  0
  7 14  1  0  0  0  0
  9 16  1  0  0  0  0
 10 11  1  6  0  0  0
 10 18  1  0  0  0  0
 12 13  1  6  0  0  0
 12 20  1  0  0  0  0
 14 15  1  1  0  0  0
 14 22  1  0  0  0  0
 16 17  1  1  0  0  0
 16 24  1  0  0  0  0
 18 19  1  6  0  0  0
 18 25  1  0  0  0  0
 20 21  1  1  0  0  0
 20 27  1  0  0  0  0
 22 23  1  6  0  0  0
 22 29  1  0  0  0  0
 24  2  1  6  0  0  0
 24 31  1  0  0  0  0
 25 26  1  0  0  0  0
 25 33  1  1  0  0  0
 27 28  1  6  0  0  0
 27 35  1  0  0  0  0
 29 30  1  0  0  0  0
 29 37  1  1  0  0  0
 31 32  1  1  0  0  0
 31 39  1  0  0  0  0
 33 34  1  0  0  0  0
 35 36  1  0  0  0  0
 35 41  1  6  0  0  0
 37 38  1  0  0  0  0
 39 40  1  6  0  0  0
 41 42  1  0  0  0  0
M  END
>  <CHROM.1>
-164.64308168,63.79348794,-58.30643201,174.87840444,-160.35427252,-67.81910888
-162.84609437,129.55664403,-168.57638272,36.49203684,37.75341058,-13.75416366
-1.87823699,-0.09322969,-0.14992828

>  <Name>
3c44_lig

>  <RI>
0

>  <Rbt.Current_Directory>
/home/itssahil/PROJECTS/Mol_Feturizer/New_Systems/rnas/3c44

>  <Rbt.Executable>
rbdock ($Id: //depot/dev/client3/rdock/2013.1/src/exe/rbdock.cxx#4 $)

>  <Rbt.Library>
libRbt.so (2013.1, Build901 2013/11/27)

>  <Rbt.Parameter_File>
/export/apps/rDock/src/rDock_2013.1_src/data/scripts/dock_solv.prm

>  <Rbt.Receptor>
prm/pocket_docking_2.prm

>  <SCORE>
-16.2328

>  <SCORE.INTER>
-19.1865

>  <SCORE.INTER.CONST>
1

>  <SCORE.INTER.POLAR>
-1.89947

>  <SCORE.INTER.ROT>
9

>  <SCORE.INTER.SOLV>
20.1054

>  <SCORE.INTER.VDW>
-22.7612

>  <SCORE.INTER.norm>
-0.456821

>  <SCORE.INTRA>
1.34064

>  <SCORE.INTRA.DIHEDRAL>
-2.91926

>  <SCORE.INTRA.DIHEDRAL.0>
14.8538

>  <SCORE.INTRA.POLAR>
0

>  <SCORE.INTRA.POLAR.0>
0

>  <SCORE.INTRA.REPUL>
0

>  <SCORE.INTRA.REPUL.0>
0

>  <SCORE.INTRA.SOLV>
-2.36757

>  <SCORE.INTRA.SOLV.lig_0>
-100.951

>  <SCORE.INTRA.VDW>
3.98405

>  <SCORE.INTRA.VDW.0>
-5.71388

>  <SCORE.INTRA.norm>
0.0319199

>  <SCORE.RESTR>
1.61306

>  <SCORE.RESTR.CAVITY>
1.61306

>  <SCORE.RESTR.norm>
0.0384063

>  <SCORE.SYSTEM>
0

>  <SCORE.SYSTEM.CONST>
0

>  <SCORE.SYSTEM.DIHEDRAL>
0

>  <SCORE.SYSTEM.SOLV>
0

>  <SCORE.SYSTEM.norm>
0

>  <SCORE.heavy>
42

>  <SCORE.norm>
-0.386495

>  <RMSD>
1.996

$$$$
3c44_lig
 OpenBabel11021811463D
libRbt.so/2013.1/901 2013/11/27
 42 45  0  0  0  0  0  0  0  0999 V2000
   37.2147   33.7934  -12.5968 C   0  0  2  0  0  0  0  0  0  0  0  0
   36.2931   33.7380  -13.6965 O   0  0  0  0  0  0  0  0  0  0  0  0
   33.3483   36.4156  -14.8574 C   0  0  2  0  0  0  0  0  0  0  0  0
   32.2037   37.3105  -15.0874 N   0  0  0  0  0  0  0  0  0  0  0  0
   36.8814   37.5747  -12.3581 C   0  0  1  0  0  0  0  0  0  0  0  0
   38.9624   41.0610  -12.2404 C   0  0  1  0  0  0  0  0  0  0  0  0
   38.5529   33.1882  -13.0337 C   0  0  2  0  0  0  0  0  0  0  0  0
   39.0555   33.8491  -14.2469 N   0  0  0  0  0  0  0  0  0  0  0  0
   32.8732   34.9752  -14.6460 C   0  0  0  0  0  0  0  0  0  0  0  0
   37.4271   37.9114  -10.9696 C   0  0  2  0  0  0  0  0  0  0  0  0
   36.4308   38.5939  -10.2058 O   0  0  0  0  0  0  0  0  0  0  0  0
   39.9333   41.3819  -11.0993 C   0  0  2  0  0  0  0  0  0  0  0  0
   39.1548   41.8826   -9.9581 N   0  0  0  0  0  0  0  0  0  0  0  0
   38.4244   31.6863  -13.2997 C   0  0  1  0  0  0  0  0  0  0  0  0
   39.7228   31.1390  -13.5483 O   0  0  0  0  0  0  0  0  0  0  0  0
   34.1151   34.0808  -14.5696 C   0  0  2  0  0  0  0  0  0  0  0  0
   33.7007   32.6947  -14.3051 N   0  0  0  0  0  0  0  0  0  0  0  0
   38.5185   38.9072  -11.3569 C   0  0  2  0  0  0  0  0  0  0  0  0
   37.9457   40.1587  -11.7701 O   0  0  0  0  0  0  0  0  0  0  0  0
   40.9452   42.4563  -11.5187 C   0  0  1  0  0  0  0  0  0  0  0  0
   41.8721   41.9251  -12.4693 O   0  0  0  0  0  0  0  0  0  0  0  0
   37.8025   30.9954  -12.0847 C   0  0  2  0  0  0  0  0  0  0  0  0
   37.5829   29.6131  -12.3782 O   0  0  0  0  0  0  0  0  0  0  0  0
   35.1040   34.5181  -13.4817 C   0  0  2  0  0  0  0  0  0  0  0  0
   39.1223   38.2021  -12.5611 C   0  0  2  0  0  0  0  0  0  0  0  0
   38.0640   37.4277  -13.1658 O   0  0  0  0  0  0  0  0  0  0  0  0
   40.2399   43.6624  -12.1412 C   0  0  2  0  0  0  0  0  0  0  0  0
   39.4810   44.3278  -11.1275 O   0  0  0  0  0  0  0  0  0  0  0  0
   36.4721   31.6663  -11.7395 C   0  0  2  0  0  0  0  0  0  0  0  0
   36.6761   33.0684  -11.4755 O   0  0  0  0  0  0  0  0  0  0  0  0
   35.4327   36.0095  -13.4956 C   0  0  2  0  0  0  0  0  0  0  0  0
   36.1209   36.3563  -12.2828 O   0  0  0  0  0  0  0  0  0  0  0  0
   40.2698   37.3001  -12.1014 C   0  0  0  0  0  0  0  0  0  0  0  0
   40.9543   36.7929  -13.2490 O   0  0  0  0  0  0  0  0  0  0  0  0
   39.3206   43.1763  -13.2649 C   0  0  1  0  0  0  0  0  0  0  0  0
   38.3504   42.2762  -12.7012 O   0  0  0  0  0  0  0  0  0  0  0  0
   35.9131   30.9750  -10.4933 C   0  0  0  0  0  0  0  0  0  0  0  0
   36.9044   31.0118   -9.4085 O   0  0  0  0  0  0  0  0  0  0  0  0
   34.1581   36.8506  -13.6333 C   0  0  1  0  0  0  0  0  0  0  0  0
   34.4950   38.2360  -13.7340 O   0  0  0  0  0  0  0  0  0  0  0  0
   38.5913   44.3292  -13.9556 C   0  0  0  0  0  0  0  0  0  0  0  0
   39.5760   45.2016  -14.6105 N   0  0  0  0  0  0  0  0  0  0  0  0
  1  2  1  6  0  0  0
  1  7  1  0  0  0  0
  1 30  1  0  0  0  0
  3  4  1  1  0  0  0
  3  9  1  0  0  0  0
  3 39  1  0  0  0  0
  5 10  1  0  0  0  0
  5 26  1  0  0  0  0
  5 32  1  1  0  0  0
  6 12  1  0  0  0  0
  6 36  1  0  0  0  0
  6 19  1  1  0  0  0
  7  8  1  6  0  0  0
  7 14  1  0  0  0  0
  9 16  1  0  0  0  0
 10 11  1  1  0  0  0
 10 18  1  0  0  0  0
 12 13  1  1  0  0  0
 12 20  1  0  0  0  0
 14 15  1  1  0  0  0
 14 22  1  0  0  0  0
 16 17  1  1  0  0  0
 16 24  1  0  0  0  0
 18 19  1  6  0  0  0
 18 25  1  0  0  0  0
 20 21  1  6  0  0  0
 20 27  1  0  0  0  0
 22 23  1  6  0  0  0
 22 29  1  0  0  0  0
 24  2  1  6  0  0  0
 24 31  1  0  0  0  0
 25 26  1  0  0  0  0
 25 33  1  1  0  0  0
 27 28  1  1  0  0  0
 27 35  1  0  0  0  0
 29 30  1  0  0  0  0
 29 37  1  1  0  0  0
 31 32  1  1  0  0  0
 31 39  1  0  0  0  0
 33 34  1  0  0  0  0
 35 36  1  0  0  0  0
 35 41  1  1  0  0  0
 37 38  1  0  0  0  0
 39 40  1  6  0  0  0
 41 42  1  0  0  0  0
M  END
>  <CHROM.1>
-168.15556783,173.55055609,-62.59429520,-175.22840180,-166.75921536,-171.70995524
55.01695583,159.48342237,63.61505817,37.50185510,37.05174450,-12.62152881
-1.87933999,-0.36344480,-0.07721493

>  <Name>
3c44_lig

>  <RI>
0

>  <Rbt.Current_Directory>
/home/itssahil/PROJECTS/Mol_Feturizer/New_Systems/rnas/3c44

>  <Rbt.Executable>
rbdock ($Id: //depot/dev/client3/rdock/2013.1/src/exe/rbdock.cxx#4 $)

>  <Rbt.Library>
libRbt.so (2013.1, Build901 2013/11/27)

>  <Rbt.Parameter_File>
/export/apps/rDock/src/rDock_2013.1_src/data/scripts/dock_solv.prm

>  <Rbt.Receptor>
prm/pocket_docking_6.prm

>  <SCORE>
-24.5569

>  <SCORE.INTER>
-20.5695

>  <SCORE.INTER.CONST>
1

>  <SCORE.INTER.POLAR>
-1.62137

>  <SCORE.INTER.ROT>
9

>  <SCORE.INTER.SOLV>
23.6713

>  <SCORE.INTER.VDW>
-25.7988

>  <SCORE.INTER.norm>
-0.489749

>  <SCORE.INTRA>
-3.98747

>  <SCORE.INTRA.DIHEDRAL>
-10.2726

>  <SCORE.INTRA.DIHEDRAL.0>
14.8538

>  <SCORE.INTRA.POLAR>
0

>  <SCORE.INTRA.POLAR.0>
0

>  <SCORE.INTRA.REPUL>
0

>  <SCORE.INTRA.REPUL.0>
0

>  <SCORE.INTRA.SOLV>
-3.26127

>  <SCORE.INTRA.SOLV.lig_0>
-100.951

>  <SCORE.INTRA.VDW>
2.77944

>  <SCORE.INTRA.VDW.0>
-5.71388

>  <SCORE.INTRA.norm>
-0.0949398

>  <SCORE.RESTR>
5.55007e-05

>  <SCORE.RESTR.CAVITY>
5.55007e-05

>  <SCORE.RESTR.norm>
1.32145e-06

>  <SCORE.SYSTEM>
0

>  <SCORE.SYSTEM.CONST>
0

>  <SCORE.SYSTEM.DIHEDRAL>
0

>  <SCORE.SYSTEM.SOLV>
0

>  <SCORE.SYSTEM.norm>
0

>  <SCORE.heavy>
42

>  <SCORE.norm>
-0.584688

>  <RMSD>
2.016

$$$$
3c44_lig
 OpenBabel11021811463D
libRbt.so/2013.1/901 2013/11/27
 42 45  0  0  0  0  0  0  0  0999 V2000
   36.7936   35.1701  -12.6973 C   0  0  2  0  0  0  0  0  0  0  0  0
   36.2744   35.2251  -14.0349 O   0  0  0  0  0  0  0  0  0  0  0  0
   33.0922   37.0817  -15.9365 C   0  0  2  0  0  0  0  0  0  0  0  0
   31.8456   37.6752  -16.4439 N   0  0  0  0  0  0  0  0  0  0  0  0
   36.0366   39.0414  -13.0322 C   0  0  1  0  0  0  0  0  0  0  0  0
   37.2964   43.0956  -13.1530 C   0  0  1  0  0  0  0  0  0  0  0  0
   38.2752   34.7829  -12.7506 C   0  0  2  0  0  0  0  0  0  0  0  0
   39.0238   35.6950  -13.6275 N   0  0  0  0  0  0  0  0  0  0  0  0
   32.9055   35.5867  -15.6621 C   0  0  0  0  0  0  0  0  0  0  0  0
   35.2886   40.1424  -12.2791 C   0  0  2  0  0  0  0  0  0  0  0  0
   34.2819   40.7110  -13.1187 O   0  0  0  0  0  0  0  0  0  0  0  0
   37.9563   43.5832  -14.4470 C   0  0  2  0  0  0  0  0  0  0  0  0
   38.9135   42.5604  -14.8906 N   0  0  0  0  0  0  0  0  0  0  0  0
   38.4579   33.3475  -13.2500 C   0  0  1  0  0  0  0  0  0  0  0  0
   39.8356   32.9794  -13.1324 O   0  0  0  0  0  0  0  0  0  0  0  0
   34.2738   35.0064  -15.2892 C   0  0  2  0  0  0  0  0  0  0  0  0
   34.1238   33.5813  -14.9580 N   0  0  0  0  0  0  0  0  0  0  0  0
   36.4204   41.1546  -12.1130 C   0  0  2  0  0  0  0  0  0  0  0  0
   36.7228   41.7935  -13.3642 O   0  0  0  0  0  0  0  0  0  0  0  0
   38.7080   44.9017  -14.2226 C   0  0  1  0  0  0  0  0  0  0  0  0
   37.7847   45.9737  -14.0151 O   0  0  0  0  0  0  0  0  0  0  0  0
   37.6011   32.3944  -12.4147 C   0  0  2  0  0  0  0  0  0  0  0  0
   37.6890   31.0725  -12.9531 O   0  0  0  0  0  0  0  0  0  0  0  0
   34.9272   35.7245  -14.1018 C   0  0  2  0  0  0  0  0  0  0  0  0
   37.5637   40.2305  -11.7244 C   0  0  2  0  0  0  0  0  0  0  0  0
   37.3008   38.9553  -12.3489 O   0  0  0  0  0  0  0  0  0  0  0  0
   39.6326   44.8073  -13.0077 C   0  0  2  0  0  0  0  0  0  0  0  0
   40.6910   43.8914  -13.3025 O   0  0  0  0  0  0  0  0  0  0  0  0
   36.1454   32.8632  -12.4354 C   0  0  2  0  0  0  0  0  0  0  0  0
   36.0489   34.2083  -11.9270 O   0  0  0  0  0  0  0  0  0  0  0  0
   34.9261   37.2478  -14.2121 C   0  0  2  0  0  0  0  0  0  0  0  0
   35.2873   37.8169  -12.9431 O   0  0  0  0  0  0  0  0  0  0  0  0
   37.6156   40.0964  -10.2009 C   0  0  0  0  0  0  0  0  0  0  0  0
   38.7355   39.2845   -9.8411 O   0  0  0  0  0  0  0  0  0  0  0  0
   38.8234   44.3196  -11.8030 C   0  0  1  0  0  0  0  0  0  0  0  0
   38.2842   43.0224  -12.1126 O   0  0  0  0  0  0  0  0  0  0  0  0
   35.3380   31.9101  -11.5504 C   0  0  0  0  0  0  0  0  0  0  0  0
   35.2108   30.5999  -12.2048 O   0  0  0  0  0  0  0  0  0  0  0  0
   33.5492   37.7650  -14.6452 C   0  0  1  0  0  0  0  0  0  0  0  0
   33.5946   39.1818  -14.8285 O   0  0  0  0  0  0  0  0  0  0  0  0
   39.6745   44.2182  -10.5366 C   0  0  0  0  0  0  0  0  0  0  0  0
   39.0192   44.9629   -9.4524 N   0  0  0  0  0  0  0  0  0  0  0  0
  1  2  1  6  0  0  0
  1  7  1  0  0  0  0
  1 30  1  0  0  0  0
  3  4  1  1  0  0  0
  3  9  1  0  0  0  0
  3 39  1  0  0  0  0
  5 10  1  0  0  0  0
  5 26  1  0  0  0  0
  5 32  1  1  0  0  0
  6 12  1  0  0  0  0
  6 36  1  0  0  0  0
  6 19  1  6  0  0  0
  7  8  1  6  0  0  0
  7 14  1  0  0  0  0
  9 16  1  0  0  0  0
 10 11  1  6  0  0  0
 10 18  1  0  0  0  0
 12 13  1  1  0  0  0
 12 20  1  0  0  0  0
 14 15  1  1  0  0  0
 14 22  1  0  0  0  0
 16 17  1  1  0  0  0
 16 24  1  0  0  0  0
 18 19  1  6  0  0  0
 18 25  1  0  0  0  0
 20 21  1  1  0  0  0
 20 27  1  0  0  0  0
 22 23  1  6  0  0  0
 22 29  1  0  0  0  0
 24  2  1  6  0  0  0
 24 31  1  0  0  0  0
 25 26  1  0  0  0  0
 25 33  1  1  0  0  0
 27 28  1  6  0  0  0
 27 35  1  0  0  0  0
 29 30  1  0  0  0  0
 29 37  1  1  0  0  0
 31 32  1  1  0  0  0
 31 39  1  0  0  0  0
 33 34  1  0  0  0  0
 35 36  1  0  0  0  0
 35 41  1  1  0  0  0
 37 38  1  0  0  0  0
 39 40  1  6  0  0  0
 41 42  1  0  0  0  0
M  END
>  <CHROM.1>
-173.52767381,122.45519531,164.42697982,153.93694018,-148.00757919,-176.94014833
-71.17499726,146.47997904,127.34644626,36.72896296,38.40546433,-13.09920289
-1.84825962,-0.56562699,-0.07641658

>  <Name>
3c44_lig

>  <RI>
224

>  <Rbt.Current_Directory>
/home/itssahil/PROJECTS/Mol_Feturizer/New_Systems/rnas/3c44

>  <Rbt.Executable>
rbdock ($Id: //depot/dev/client3/rdock/2013.1/src/exe/rbdock.cxx#4 $)

>  <Rbt.Library>
libRbt.so (2013.1, Build901 2013/11/27)

>  <Rbt.Parameter_File>
/export/apps/rDock/src/rDock_2013.1_src/data/scripts/dock_solv.prm

>  <Rbt.Receptor>
prm/pocket_docking_3.prm

>  <SCORE>
-12.2401

>  <SCORE.INTER>
-18.0898

>  <SCORE.INTER.CONST>
1

>  <SCORE.INTER.POLAR>
-1.1373

>  <SCORE.INTER.ROT>
9

>  <SCORE.INTER.SOLV>
18.3376

>  <SCORE.INTER.VDW>
-23.9814

>  <SCORE.INTER.norm>
-0.430709

>  <SCORE.INTRA>
5.8497

>  <SCORE.INTRA.DIHEDRAL>
10.2838

>  <SCORE.INTRA.DIHEDRAL.0>
14.8538

>  <SCORE.INTRA.POLAR>
0

>  <SCORE.INTRA.POLAR.0>
0

>  <SCORE.INTRA.REPUL>
0.00577886

>  <SCORE.INTRA.REPUL.0>
0

>  <SCORE.INTRA.SOLV>
-3.33317

>  <SCORE.INTRA.SOLV.lig_0>
-100.951

>  <SCORE.INTRA.VDW>
2.3455

>  <SCORE.INTRA.VDW.0>
-5.71388

>  <SCORE.INTRA.norm>
0.139279

>  <SCORE.RESTR>
0

>  <SCORE.RESTR.CAVITY>
0

>  <SCORE.RESTR.norm>
0

>  <SCORE.SYSTEM>
0

>  <SCORE.SYSTEM.CONST>
0

>  <SCORE.SYSTEM.DIHEDRAL>
0

>  <SCORE.SYSTEM.SOLV>
0

>  <SCORE.SYSTEM.norm>
0

>  <SCORE.heavy>
42

>  <SCORE.norm>
-0.29143

>  <RMSD>
2.042

$$$$
3c44_lig
 OpenBabel11021811463D
libRbt.so/2013.1/901 2013/11/27
 42 45  0  0  0  0  0  0  0  0999 V2000
   36.9472   34.4808  -12.7581 C   0  0  2  0  0  0  0  0  0  0  0  0
   36.0399   34.1005  -13.8040 O   0  0  0  0  0  0  0  0  0  0  0  0
   32.4885   35.8272  -15.0672 C   0  0  2  0  0  0  0  0  0  0  0  0
   31.1515   36.3847  -15.3228 N   0  0  0  0  0  0  0  0  0  0  0  0
   36.4434   37.5209  -13.0075 C   0  0  1  0  0  0  0  0  0  0  0  0
   39.5260   39.9571  -14.1028 C   0  0  1  0  0  0  0  0  0  0  0  0
   38.3846   34.2322  -13.2270 C   0  0  2  0  0  0  0  0  0  0  0  0
   38.6461   34.9178  -14.5008 N   0  0  0  0  0  0  0  0  0  0  0  0
   32.3909   34.3514  -14.6701 C   0  0  0  0  0  0  0  0  0  0  0  0
   36.0473   38.9887  -13.1745 C   0  0  2  0  0  0  0  0  0  0  0  0
   35.5436   39.2115  -14.4929 O   0  0  0  0  0  0  0  0  0  0  0  0
   39.4264   41.4677  -13.8663 C   0  0  2  0  0  0  0  0  0  0  0  0
   38.6265   42.0529  -14.9511 N   0  0  0  0  0  0  0  0  0  0  0  0
   38.6637   32.7369  -13.3979 C   0  0  1  0  0  0  0  0  0  0  0  0
   40.0534   32.5462  -13.6804 O   0  0  0  0  0  0  0  0  0  0  0  0
   33.8170   33.7991  -14.5730 C   0  0  2  0  0  0  0  0  0  0  0  0
   33.7665   32.3967  -14.1330 N   0  0  0  0  0  0  0  0  0  0  0  0
   37.4233   39.6412  -13.0563 C   0  0  2  0  0  0  0  0  0  0  0  0
   38.2061   39.4013  -14.2373 O   0  0  0  0  0  0  0  0  0  0  0  0
   40.8147   42.1209  -13.8662 C   0  0  1  0  0  0  0  0  0  0  0  0
   41.5409   41.7498  -12.6915 O   0  0  0  0  0  0  0  0  0  0  0  0
   38.2959   31.9902  -12.1144 C   0  0  2  0  0  0  0  0  0  0  0  0
   38.4538   30.5831  -12.3151 O   0  0  0  0  0  0  0  0  0  0  0  0
   34.7027   34.5908  -13.6029 C   0  0  2  0  0  0  0  0  0  0  0  0
   38.0043   38.8538  -11.8924 C   0  0  2  0  0  0  0  0  0  0  0  0
   37.3995   37.5431  -11.9315 O   0  0  0  0  0  0  0  0  0  0  0  0
   41.6207   41.6993  -15.0960 C   0  0  2  0  0  0  0  0  0  0  0  0
   41.0121   42.2610  -16.2622 O   0  0  0  0  0  0  0  0  0  0  0  0
   36.8449   32.2976  -11.7412 C   0  0  2  0  0  0  0  0  0  0  0  0
   36.6656   33.7174  -11.5702 O   0  0  0  0  0  0  0  0  0  0  0  0
   34.6526   36.1044  -13.8007 C   0  0  2  0  0  0  0  0  0  0  0  0
   35.2736   36.7517  -12.6781 O   0  0  0  0  0  0  0  0  0  0  0  0
   37.6798   39.5702  -10.5798 C   0  0  0  0  0  0  0  0  0  0  0  0
   36.2795   39.4539  -10.3176 O   0  0  0  0  0  0  0  0  0  0  0  0
   41.6332   40.1708  -15.1829 C   0  0  1  0  0  0  0  0  0  0  0  0
   40.2754   39.7112  -15.3034 O   0  0  0  0  0  0  0  0  0  0  0  0
   36.5386   31.5697  -10.4298 C   0  0  0  0  0  0  0  0  0  0  0  0
   36.6133   30.1154  -10.6306 O   0  0  0  0  0  0  0  0  0  0  0  0
   33.2060   36.5901  -13.9507 C   0  0  1  0  0  0  0  0  0  0  0  0
   33.1869   37.9930  -14.2234 O   0  0  0  0  0  0  0  0  0  0  0  0
   42.4403   39.6656  -16.3794 C   0  0  0  0  0  0  0  0  0  0  0  0
   42.3822   38.1977  -16.4171 N   0  0  0  0  0  0  0  0  0  0  0  0
  1  2  1  6  0  0  0
  1  7  1  0  0  0  0
  1 30  1  0  0  0  0
  3  4  1  1  0  0  0
  3  9  1  0  0  0  0
  3 39  1  0  0  0  0
  5 10  1  0  0  0  0
  5 26  1  0  0  0  0
  5 32  1  1  0  0  0
  6 12  1  0  0  0  0
  6 36  1  0  0  0  0
  6 19  1  6  0  0  0
  7  8  1  6  0  0  0
  7 14  1  0  0  0  0
  9 16  1  0  0  0  0
 10 11  1  6  0  0  0
 10 18  1  0  0  0  0
 12 13  1  6  0  0  0
 12 20  1  0  0  0  0
 14 15  1  1  0  0  0
 14 22  1  0  0  0  0
 16 17  1  1  0  0  0
 16 24  1  0  0  0  0
 18 19  1  6  0  0  0
 18 25  1  0  0  0  0
 20 21  1  1  0  0  0
 20 27  1  0  0  0  0
 22 23  1  6  0  0  0
 22 29  1  0  0  0  0
 24  2  1  6  0  0  0
 24 31  1  0  0  0  0
 25 26  1  0  0  0  0
 25 33  1  1  0  0  0
 27 28  1  6  0  0  0
 27 35  1  0  0  0  0
 29 30  1  0  0  0  0
 29 37  1  1  0  0  0
 31 32  1  1  0  0  0
 31 39  1  0  0  0  0
 33 34  1  0  0  0  0
 35 36  1  0  0  0  0
 35 41  1  6  0  0  0
 37 38  1  0  0  0  0
 39 40  1  6  0  0  0
 41 42  1  0  0  0  0
M  END
>  <CHROM.1>
-165.64022391,96.65287396,-59.43251976,-177.12492679,-165.23564011,70.27143808
-64.56212174,117.44849184,-178.68655055,37.37288399,36.83355176,-13.52898681
-2.10432210,-0.01761177,-0.21707408

>  <Name>
3c44_lig

>  <RI>
0

>  <Rbt.Current_Directory>
/home/itssahil/PROJECTS/Mol_Feturizer/New_Systems/rnas/3c44

>  <Rbt.Executable>
rbdock ($Id: //depot/dev/client3/rdock/2013.1/src/exe/rbdock.cxx#4 $)

>  <Rbt.Library>
libRbt.so (2013.1, Build901 2013/11/27)

>  <Rbt.Parameter_File>
/export/apps/rDock/src/rDock_2013.1_src/data/scripts/dock_solv.prm

>  <Rbt.Receptor>
prm/pocket_docking_6.prm

>  <SCORE>
-19.2014

>  <SCORE.INTER>
-20.7711

>  <SCORE.INTER.CONST>
1

>  <SCORE.INTER.POLAR>
-1.86745

>  <SCORE.INTER.ROT>
9

>  <SCORE.INTER.SOLV>
18.9841

>  <SCORE.INTER.VDW>
-23.5506

>  <SCORE.INTER.norm>
-0.494549

>  <SCORE.INTRA>
1.56635

>  <SCORE.INTRA.DIHEDRAL>
-0.0496651

>  <SCORE.INTRA.DIHEDRAL.0>
14.8538

>  <SCORE.INTRA.POLAR>
0

>  <SCORE.INTRA.POLAR.0>
0

>  <SCORE.INTRA.REPUL>
0

>  <SCORE.INTRA.REPUL.0>
0

>  <SCORE.INTRA.SOLV>
-2.3798

>  <SCORE.INTRA.SOLV.lig_0>
-100.951

>  <SCORE.INTRA.VDW>
2.78108

>  <SCORE.INTRA.VDW.0>
-5.71388

>  <SCORE.INTRA.norm>
0.037294

>  <SCORE.RESTR>
0.00330226

>  <SCORE.RESTR.CAVITY>
0.00330226

>  <SCORE.RESTR.norm>
7.86252e-05

>  <SCORE.SYSTEM>
0

>  <SCORE.SYSTEM.CONST>
0

>  <SCORE.SYSTEM.DIHEDRAL>
0

>  <SCORE.SYSTEM.SOLV>
0

>  <SCORE.SYSTEM.norm>
0

>  <SCORE.heavy>
42

>  <SCORE.norm>
-0.457176

>  <RMSD>
2.051

$$$$
3c44_lig
 OpenBabel11021811463D
libRbt.so/2013.1/901 2013/11/27
 42 45  0  0  0  0  0  0  0  0999 V2000
   36.4539   35.2221  -13.2969 C   0  0  2  0  0  0  0  0  0  0  0  0
   35.7114   34.9219  -14.4887 O   0  0  0  0  0  0  0  0  0  0  0  0
   32.0455   36.2350  -15.9123 C   0  0  2  0  0  0  0  0  0  0  0  0
   30.6628   36.6175  -16.2374 N   0  0  0  0  0  0  0  0  0  0  0  0
   35.4193   38.3880  -13.3976 C   0  0  1  0  0  0  0  0  0  0  0  0
   37.7943   41.6554  -14.2273 C   0  0  1  0  0  0  0  0  0  0  0  0
   37.9465   35.2822  -13.6386 C   0  0  2  0  0  0  0  0  0  0  0  0
   38.1957   36.2315  -14.7330 N   0  0  0  0  0  0  0  0  0  0  0  0
   32.1411   34.7296  -15.6480 C   0  0  0  0  0  0  0  0  0  0  0  0
   34.6796   39.6347  -13.8848 C   0  0  2  0  0  0  0  0  0  0  0  0
   34.5001   39.5737  -15.3011 O   0  0  0  0  0  0  0  0  0  0  0  0
   38.0751   42.4310  -15.5186 C   0  0  2  0  0  0  0  0  0  0  0  0
   38.4777   41.4707  -16.5554 N   0  0  0  0  0  0  0  0  0  0  0  0
   38.4816   33.9053  -14.0398 C   0  0  1  0  0  0  0  0  0  0  0  0
   39.9022   33.9786  -14.1942 O   0  0  0  0  0  0  0  0  0  0  0  0
   33.6226   34.3800  -15.4719 C   0  0  2  0  0  0  0  0  0  0  0  0
   33.7504   32.9496  -15.1548 N   0  0  0  0  0  0  0  0  0  0  0  0
   35.7297   40.6973  -13.5670 C   0  0  2  0  0  0  0  0  0  0  0  0
   36.8314   40.6187  -14.4863 O   0  0  0  0  0  0  0  0  0  0  0  0
   39.2063   43.4481  -15.3187 C   0  0  1  0  0  0  0  0  0  0  0  0
   38.7663   44.5279  -14.4909 O   0  0  0  0  0  0  0  0  0  0  0  0
   38.1372   32.8793  -12.9586 C   0  0  2  0  0  0  0  0  0  0  0  0
   38.5411   31.5761  -13.3869 O   0  0  0  0  0  0  0  0  0  0  0  0
   34.3046   35.1951  -14.3660 C   0  0  2  0  0  0  0  0  0  0  0  0
   36.1823   40.2365  -12.1904 C   0  0  2  0  0  0  0  0  0  0  0  0
   36.0096   38.8033  -12.1519 O   0  0  0  0  0  0  0  0  0  0  0  0
   40.4251   42.7935  -14.6662 C   0  0  2  0  0  0  0  0  0  0  0  0
   41.0006   41.8648  -15.5894 O   0  0  0  0  0  0  0  0  0  0  0  0
   36.6296   32.8928  -12.7017 C   0  0  2  0  0  0  0  0  0  0  0  0
   36.2050   34.2110  -12.3026 O   0  0  0  0  0  0  0  0  0  0  0  0
   34.0428   36.6979  -14.4423 C   0  0  2  0  0  0  0  0  0  0  0  0
   34.4741   37.3185  -13.2202 O   0  0  0  0  0  0  0  0  0  0  0  0
   35.3321   40.9217  -11.1183 C   0  0  0  0  0  0  0  0  0  0  0  0
   35.8505   40.5903   -9.8282 O   0  0  0  0  0  0  0  0  0  0  0  0
   39.9800   42.0734  -13.3906 C   0  0  1  0  0  0  0  0  0  0  0  0
   39.0150   41.0685  -13.7489 O   0  0  0  0  0  0  0  0  0  0  0  0
   36.3402   31.8887  -11.5829 C   0  0  0  0  0  0  0  0  0  0  0  0
   36.6541   32.4849  -10.2764 O   0  0  0  0  0  0  0  0  0  0  0  0
   32.5550   36.9839  -14.6782 C   0  0  1  0  0  0  0  0  0  0  0  0
   32.3461   38.3891  -14.8352 O   0  0  0  0  0  0  0  0  0  0  0  0
   41.1491   41.4074  -12.6639 C   0  0  0  0  0  0  0  0  0  0  0  0
   42.0789   42.4432  -12.1925 N   0  0  0  0  0  0  0  0  0  0  0  0
  1  2  1  6  0  0  0
  1  7  1  0  0  0  0
  1 30  1  0  0  0  0
  3  4  1  1  0  0  0
  3  9  1  0  0  0  0
  3 39  1  0  0  0  0
  5 10  1  0  0  0  0
  5 26  1  0  0  0  0
  5 32  1  1  0  0  0
  6 12  1  0  0  0  0
  6 36  1  0  0  0  0
  6 19  1  6  0  0  0
  7  8  1  6  0  0  0
  7 14  1  0  0  0  0
  9 16  1  0  0  0  0
 10 11  1  6  0  0  0
 10 18  1  0  0  0  0
 12 13  1  6  0  0  0
 12 20  1  0  0  0  0
 14 15  1  1  0  0  0
 14 22  1  0  0  0  0
 16 17  1  1  0  0  0
 16 24  1  0  0  0  0
 18 19  1  6  0  0  0
 18 25  1  0  0  0  0
 20 21  1  1  0  0  0
 20 27  1  0  0  0  0
 22 23  1  6  0  0  0
 22 29  1  0  0  0  0
 24  2  1  6  0  0  0
 24 31  1  0  0  0  0
 25 26  1  0  0  0  0
 25 33  1  1  0  0  0
 27 28  1  6  0  0  0
 27 35  1  0  0  0  0
 29 30  1  0  0  0  0
 29 37  1  1  0  0  0
 31 32  1  1  0  0  0
 31 39  1  0  0  0  0
 33 34  1  0  0  0  0
 35 36  1  0  0  0  0
 35 41  1  6  0  0  0
 37 38  1  0  0  0  0
 39 40  1  6  0  0  0
 41 42  1  0  0  0  0
M  END
>  <CHROM.1>
-164.14023018,76.59186716,-127.19630372,177.44371302,-160.23957449,-174.15575294
79.59290832,124.62968087,64.74769674,36.58099779,37.84500013,-13.82732796
-2.01214189,-0.24516802,-0.14568540

>  <Name>
3c44_lig

>  <RI>
0

>  <Rbt.Current_Directory>
/home/itssahil/PROJECTS/Mol_Feturizer/New_Systems/rnas/3c44

>  <Rbt.Executable>
rbdock ($Id: //depot/dev/client3/rdock/2013.1/src/exe/rbdock.cxx#4 $)

>  <Rbt.Library>
libRbt.so (2013.1, Build901 2013/11/27)

>  <Rbt.Parameter_File>
/export/apps/rDock/src/rDock_2013.1_src/data/scripts/dock_solv.prm

>  <Rbt.Receptor>
prm/pocket_docking_2.prm

>  <SCORE>
-13.2377

>  <SCORE.INTER>
-17.8669

>  <SCORE.INTER.CONST>
1

>  <SCORE.INTER.POLAR>
-2.15015

>  <SCORE.INTER.ROT>
9

>  <SCORE.INTER.SOLV>
19.9754

>  <SCORE.INTER.VDW>
-21.0026

>  <SCORE.INTER.norm>
-0.425403

>  <SCORE.INTRA>
2.84916

>  <SCORE.INTRA.DIHEDRAL>
5.31367

>  <SCORE.INTRA.DIHEDRAL.0>
14.8538

>  <SCORE.INTRA.POLAR>
0

>  <SCORE.INTRA.POLAR.0>
0

>  <SCORE.INTRA.REPUL>
0

>  <SCORE.INTRA.REPUL.0>
0

>  <SCORE.INTRA.SOLV>
-3.28524

>  <SCORE.INTRA.SOLV.lig_0>
-100.951

>  <SCORE.INTRA.VDW>
1.83494

>  <SCORE.INTRA.VDW.0>
-5.71388

>  <SCORE.INTRA.norm>
0.0678371

>  <SCORE.RESTR>
1.78005

>  <SCORE.RESTR.CAVITY>
1.78005

>  <SCORE.RESTR.norm>
0.0423821

>  <SCORE.SYSTEM>
0

>  <SCORE.SYSTEM.CONST>
0

>  <SCORE.SYSTEM.DIHEDRAL>
0

>  <SCORE.SYSTEM.SOLV>
0

>  <SCORE.SYSTEM.norm>
0

>  <SCORE.heavy>
42

>  <SCORE.norm>
-0.315184

>  <RMSD>
2.123

$$$$
3c44_lig
 OpenBabel11021811463D
libRbt.so/2013.1/901 2013/11/27
 42 45  0  0  0  0  0  0  0  0999 V2000
   36.6950   34.7290  -12.7874 C   0  0  2  0  0  0  0  0  0  0  0  0
   35.8501   34.3230  -13.8751 O   0  0  0  0  0  0  0  0  0  0  0  0
   32.1712   35.7103  -15.1907 C   0  0  2  0  0  0  0  0  0  0  0  0
   30.7920   36.1422  -15.4652 N   0  0  0  0  0  0  0  0  0  0  0  0
   35.7798   37.9281  -13.1283 C   0  0  1  0  0  0  0  0  0  0  0  0
   38.2328   40.9244  -14.4603 C   0  0  1  0  0  0  0  0  0  0  0  0
   38.1596   34.6292  -13.2268 C   0  0  2  0  0  0  0  0  0  0  0  0
   38.3902   35.3964  -14.4594 N   0  0  0  0  0  0  0  0  0  0  0  0
   32.2034   34.2348  -14.7819 C   0  0  0  0  0  0  0  0  0  0  0  0
   35.0943   38.9577  -14.0278 C   0  0  2  0  0  0  0  0  0  0  0  0
   35.1039   38.5052  -15.3831 O   0  0  0  0  0  0  0  0  0  0  0  0
   37.6401   42.2070  -15.0530 C   0  0  2  0  0  0  0  0  0  0  0  0
   37.2403   41.9326  -16.4401 N   0  0  0  0  0  0  0  0  0  0  0  0
   38.5732   33.1739  -13.4592 C   0  0  1  0  0  0  0  0  0  0  0  0
   39.9806   33.1185  -13.7111 O   0  0  0  0  0  0  0  0  0  0  0  0
   33.6725   33.8151  -14.6649 C   0  0  2  0  0  0  0  0  0  0  0  0
   33.7445   32.4173  -14.2133 N   0  0  0  0  0  0  0  0  0  0  0  0
   36.0794   40.1167  -13.8887 C   0  0  2  0  0  0  0  0  0  0  0  0
   37.2935   39.8451  -14.6080 O   0  0  0  0  0  0  0  0  0  0  0  0
   38.6686   43.3455  -15.0494 C   0  0  1  0  0  0  0  0  0  0  0  0
   38.9091   43.7968  -13.7140 O   0  0  0  0  0  0  0  0  0  0  0  0
   38.2419   32.3362  -12.2228 C   0  0  2  0  0  0  0  0  0  0  0  0
   38.5277   30.9597  -12.4843 O   0  0  0  0  0  0  0  0  0  0  0  0
   34.4717   34.6914  -13.6924 C   0  0  2  0  0  0  0  0  0  0  0  0
   36.3527   40.0702  -12.3937 C   0  0  2  0  0  0  0  0  0  0  0  0
   36.1953   38.6948  -11.9828 O   0  0  0  0  0  0  0  0  0  0  0  0
   39.9947   42.8901  -15.6606 C   0  0  2  0  0  0  0  0  0  0  0  0
   39.8014   42.6492  -17.0573 O   0  0  0  0  0  0  0  0  0  0  0  0
   36.7609   32.4980  -11.8767 C   0  0  2  0  0  0  0  0  0  0  0  0
   36.4533   33.8868  -11.6448 O   0  0  0  0  0  0  0  0  0  0  0  0
   34.2867   36.1926  -13.9038 C   0  0  2  0  0  0  0  0  0  0  0  0
   34.8337   36.9022  -12.7804 O   0  0  0  0  0  0  0  0  0  0  0  0
   35.3598   40.9786  -11.6654 C   0  0  0  0  0  0  0  0  0  0  0  0
   35.5463   42.3248  -12.1081 O   0  0  0  0  0  0  0  0  0  0  0  0
   40.4544   41.6110  -14.9560 C   0  0  1  0  0  0  0  0  0  0  0  0
   39.4504   40.5992  -15.1498 O   0  0  0  0  0  0  0  0  0  0  0  0
   36.4885   31.6831  -10.6097 C   0  0  0  0  0  0  0  0  0  0  0  0
   36.6781   30.2508  -10.8807 O   0  0  0  0  0  0  0  0  0  0  0  0
   32.8038   36.5437  -14.0733 C   0  0  1  0  0  0  0  0  0  0  0  0
   32.6606   37.9370  -14.3583 O   0  0  0  0  0  0  0  0  0  0  0  0
   41.7903   41.1001  -15.4971 C   0  0  0  0  0  0  0  0  0  0  0  0
   41.6191   40.6873  -16.8970 N   0  0  0  0  0  0  0  0  0  0  0  0
  1  2  1  6  0  0  0
  1  7  1  0  0  0  0
  1 30  1  0  0  0  0
  3  4  1  1  0  0  0
  3  9  1  0  0  0  0
  3 39  1  0  0  0  0
  5 10  1  0  0  0  0
  5 26  1  0  0  0  0
  5 32  1  1  0  0  0
  6 12  1  0  0  0  0
  6 36  1  0  0  0  0
  6 19  1  6  0  0  0
  7  8  1  6  0  0  0
  7 14  1  0  0  0  0
  9 16  1  0  0  0  0
 10 11  1  6  0  0  0
 10 18  1  0  0  0  0
 12 13  1  6  0  0  0
 12 20  1  0  0  0  0
 14 15  1  1  0  0  0
 14 22  1  0  0  0  0
 16 17  1  1  0  0  0
 16 24  1  0  0  0  0
 18 19  1  6  0  0  0
 18 25  1  0  0  0  0
 20 21  1  1  0  0  0
 20 27  1  0  0  0  0
 22 23  1  6  0  0  0
 22 29  1  0  0  0  0
 24  2  1  6  0  0  0
 24 31  1  0  0  0  0
 25 26  1  0  0  0  0
 25 33  1  1  0  0  0
 27 28  1  6  0  0  0
 27 35  1  0  0  0  0
 29 30  1  0  0  0  0
 29 37  1  1  0  0  0
 31 32  1  1  0  0  0
 31 39  1  0  0  0  0
 33 34  1  0  0  0  0
 35 36  1  0  0  0  0
 35 41  1  6  0  0  0
 37 38  1  0  0  0  0
 39 40  1  6  0  0  0
 41 42  1  0  0  0  0
M  END
>  <CHROM.1>
-165.32595402,59.74611906,-62.06923197,-179.00238458,-162.04401137,-61.96199788
-65.31998501,127.07481163,-65.43190640,36.66162284,37.39615418,-13.87687193
-1.87928162,-0.00611865,-0.22941039

>  <Name>
3c44_lig

>  <RI>
0

>  <Rbt.Current_Directory>
/home/itssahil/PROJECTS/Mol_Feturizer/New_Systems/rnas/3c44

>  <Rbt.Executable>
rbdock ($Id: //depot/dev/client3/rdock/2013.1/src/exe/rbdock.cxx#4 $)

>  <Rbt.Library>
libRbt.so (2013.1, Build901 2013/11/27)

>  <Rbt.Parameter_File>
/export/apps/rDock/src/rDock_2013.1_src/data/scripts/dock_solv.prm

>  <Rbt.Receptor>
prm/pocket_docking_4.prm

>  <SCORE>
-20.855

>  <SCORE.INTER>
-22.1447

>  <SCORE.INTER.CONST>
1

>  <SCORE.INTER.POLAR>
-1.80468

>  <SCORE.INTER.ROT>
9

>  <SCORE.INTER.SOLV>
18.0934

>  <SCORE.INTER.VDW>
-24.3786

>  <SCORE.INTER.norm>
-0.527254

>  <SCORE.INTRA>
1.28965

>  <SCORE.INTRA.DIHEDRAL>
-4.70172

>  <SCORE.INTRA.DIHEDRAL.0>
14.8538

>  <SCORE.INTRA.POLAR>
0

>  <SCORE.INTRA.POLAR.0>
0

>  <SCORE.INTRA.REPUL>
0

>  <SCORE.INTRA.REPUL.0>
0

>  <SCORE.INTRA.SOLV>
-0.74543

>  <SCORE.INTRA.SOLV.lig_0>
-100.951

>  <SCORE.INTRA.VDW>
4.01322

>  <SCORE.INTRA.VDW.0>
-5.71388

>  <SCORE.INTRA.norm>
0.0307059

>  <SCORE.RESTR>
0

>  <SCORE.RESTR.CAVITY>
0

>  <SCORE.RESTR.norm>
0

>  <SCORE.SYSTEM>
0

>  <SCORE.SYSTEM.CONST>
0

>  <SCORE.SYSTEM.DIHEDRAL>
0

>  <SCORE.SYSTEM.SOLV>
0

>  <SCORE.SYSTEM.norm>
0

>  <SCORE.heavy>
42

>  <SCORE.norm>
-0.496548

>  <RMSD>
2.138

$$$$
3c44_lig
 OpenBabel11021811463D
libRbt.so/2013.1/901 2013/11/27
 42 45  0  0  0  0  0  0  0  0999 V2000
   36.6905   34.6108  -12.7048 C   0  0  2  0  0  0  0  0  0  0  0  0
   35.9048   34.3538  -13.8788 O   0  0  0  0  0  0  0  0  0  0  0  0
   32.3543   35.9352  -15.3220 C   0  0  2  0  0  0  0  0  0  0  0  0
   31.0090   36.4333  -15.6475 N   0  0  0  0  0  0  0  0  0  0  0  0
   35.9036   37.9747  -13.0242 C   0  0  1  0  0  0  0  0  0  0  0  0
   38.3581   41.0697  -14.3001 C   0  0  1  0  0  0  0  0  0  0  0  0
   38.1714   34.3996  -13.0371 C   0  0  2  0  0  0  0  0  0  0  0  0
   38.5704   35.2151  -14.1932 N   0  0  0  0  0  0  0  0  0  0  0  0
   32.3061   34.4480  -14.9598 C   0  0  0  0  0  0  0  0  0  0  0  0
   35.2692   39.0163  -13.9471 C   0  0  2  0  0  0  0  0  0  0  0  0
   35.3635   38.5860  -15.3064 O   0  0  0  0  0  0  0  0  0  0  0  0
   38.5968   41.6298  -15.7062 C   0  0  2  0  0  0  0  0  0  0  0  0
   39.1035   40.5433  -16.5558 N   0  0  0  0  0  0  0  0  0  0  0  0
   38.4705   32.9284  -13.3361 C   0  0  1  0  0  0  0  0  0  0  0  0
   39.8832   32.7553  -13.4832 O   0  0  0  0  0  0  0  0  0  0  0  0
   33.7493   33.9629  -14.7869 C   0  0  2  0  0  0  0  0  0  0  0  0
   33.7419   32.5504  -14.3775 N   0  0  0  0  0  0  0  0  0  0  0  0
   36.2384   40.1766  -13.7296 C   0  0  2  0  0  0  0  0  0  0  0  0
   37.4953   39.9214  -14.3777 O   0  0  0  0  0  0  0  0  0  0  0  0
   39.6302   42.7637  -15.6826 C   0  0  1  0  0  0  0  0  0  0  0  0
   39.0801   43.9275  -15.0598 O   0  0  0  0  0  0  0  0  0  0  0  0
   37.9649   32.0522  -12.1886 C   0  0  2  0  0  0  0  0  0  0  0  0
   38.1466   30.6733  -12.5210 O   0  0  0  0  0  0  0  0  0  0  0  0
   34.5355   34.7748  -13.7499 C   0  0  2  0  0  0  0  0  0  0  0  0
   36.4203   40.1067  -12.2216 C   0  0  2  0  0  0  0  0  0  0  0  0
   36.2448   38.7242  -11.8433 O   0  0  0  0  0  0  0  0  0  0  0  0
   40.8877   42.3454  -14.9187 C   0  0  2  0  0  0  0  0  0  0  0  0
   41.5615   41.3252  -15.6612 O   0  0  0  0  0  0  0  0  0  0  0  0
   36.4810   32.3323  -11.9461 C   0  0  2  0  0  0  0  0  0  0  0  0
   36.2812   33.7273  -11.6441 O   0  0  0  0  0  0  0  0  0  0  0  0
   34.4226   36.2882  -13.9214 C   0  0  2  0  0  0  0  0  0  0  0  0
   34.9429   36.9397  -12.7511 O   0  0  0  0  0  0  0  0  0  0  0  0
   35.3805   40.9993  -11.5407 C   0  0  0  0  0  0  0  0  0  0  0  0
   34.0788   40.4505  -11.7587 O   0  0  0  0  0  0  0  0  0  0  0  0
   40.4809   41.8222  -13.5387 C   0  0  1  0  0  0  0  0  0  0  0  0
   39.6153   40.6876  -13.7196 O   0  0  0  0  0  0  0  0  0  0  0  0
   36.0334   31.4713  -10.7622 C   0  0  0  0  0  0  0  0  0  0  0  0
   36.6762   31.9399   -9.5260 O   0  0  0  0  0  0  0  0  0  0  0  0
   32.9654   36.7069  -14.1497 C   0  0  1  0  0  0  0  0  0  0  0  0
   32.8935   38.1130  -14.3962 O   0  0  0  0  0  0  0  0  0  0  0  0
   41.6884   41.4013  -12.7001 C   0  0  0  0  0  0  0  0  0  0  0  0
   41.2347   41.0218  -11.3549 N   0  0  0  0  0  0  0  0  0  0  0  0
  1  2  1  6  0  0  0
  1  7  1  0  0  0  0
  1 30  1  0  0  0  0
  3  4  1  1  0  0  0
  3  9  1  0  0  0  0
  3 39  1  0  0  0  0
  5 10  1  0  0  0  0
  5 26  1  0  0  0  0
  5 32  1  1  0  0  0
  6 12  1  0  0  0  0
  6 36  1  0  0  0  0
  6 19  1  6  0  0  0
  7  8  1  6  0  0  0
  7 14  1  0  0  0  0
  9 16  1  0  0  0  0
 10 11  1  6  0  0  0
 10 18  1  0  0  0  0
 12 13  1  6  0  0  0
 12 20  1  0  0  0  0
 14 15  1  1  0  0  0
 14 22  1  0  0  0  0
 16 17  1  1  0  0  0
 16 24  1  0  0  0  0
 18 19  1  6  0  0  0
 18 25  1  0  0  0  0
 20 21  1  1  0  0  0
 20 27  1  0  0  0  0
 22 23  1  6  0  0  0
 22 29  1  0  0  0  0
 24  2  1  6  0  0  0
 24 31  1  0  0  0  0
 25 26  1  0  0  0  0
 25 33  1  1  0  0  0
 27 28  1  6  0  0  0
 27 35  1  0  0  0  0
 29 30  1  0  0  0  0
 29 37  1  1  0  0  0
 31 32  1  1  0  0  0
 31 39  1  0  0  0  0
 33 34  1  0  0  0  0
 35 36  1  0  0  0  0
 35 41  1  1  0  0  0
 37 38  1  0  0  0  0
 39 40  1  6  0  0  0
 41 42  1  0  0  0  0
M  END
>  <CHROM.1>
-168.47980202,57.01464976,-114.51314082,173.70734947,-158.14758321,66.76427995
67.90696358,129.64242474,175.15394440,36.79435639,37.30792205,-13.55589087
-1.98093783,-0.17355032,-0.23233546

>  <Name>
3c44_lig

>  <RI>
224

>  <Rbt.Current_Directory>
/home/itssahil/PROJECTS/Mol_Feturizer/New_Systems/rnas/3c44

>  <Rbt.Executable>
rbdock ($Id: //depot/dev/client3/rdock/2013.1/src/exe/rbdock.cxx#4 $)

>  <Rbt.Library>
libRbt.so (2013.1, Build901 2013/11/27)

>  <Rbt.Parameter_File>
/export/apps/rDock/src/rDock_2013.1_src/data/scripts/dock_solv.prm

>  <Rbt.Receptor>
prm/pocket_docking_3.prm

>  <SCORE>
-19.9255

>  <SCORE.INTER>
-23.058

>  <SCORE.INTER.CONST>
1

>  <SCORE.INTER.POLAR>
-2.26829

>  <SCORE.INTER.ROT>
9

>  <SCORE.INTER.SOLV>
20.6371

>  <SCORE.INTER.VDW>
-24.2901

>  <SCORE.INTER.norm>
-0.549001

>  <SCORE.INTRA>
3.08417

>  <SCORE.INTRA.DIHEDRAL>
2.8299

>  <SCORE.INTRA.DIHEDRAL.0>
14.8538

>  <SCORE.INTRA.POLAR>
0

>  <SCORE.INTRA.POLAR.0>
0

>  <SCORE.INTRA.REPUL>
0

>  <SCORE.INTRA.REPUL.0>
0

>  <SCORE.INTRA.SOLV>
-2.96264

>  <SCORE.INTRA.SOLV.lig_0>
-100.951

>  <SCORE.INTRA.VDW>
3.15054

>  <SCORE.INTRA.VDW.0>
-5.71388

>  <SCORE.INTRA.norm>
0.0734326

>  <SCORE.RESTR>
0.0483661

>  <SCORE.RESTR.CAVITY>
0.0483661

>  <SCORE.RESTR.norm>
0.00115157

>  <SCORE.SYSTEM>
0

>  <SCORE.SYSTEM.CONST>
0

>  <SCORE.SYSTEM.DIHEDRAL>
0

>  <SCORE.SYSTEM.SOLV>
0

>  <SCORE.SYSTEM.norm>
0

>  <SCORE.heavy>
42

>  <SCORE.norm>
-0.474417

>  <RMSD>
2.159

$$$$
3c44_lig
 OpenBabel11021811463D
libRbt.so/2013.1/901 2013/11/27
 42 45  0  0  0  0  0  0  0  0999 V2000
   36.6275   34.7274  -12.6936 C   0  0  2  0  0  0  0  0  0  0  0  0
   35.8872   34.4935  -13.9015 O   0  0  0  0  0  0  0  0  0  0  0  0
   32.4133   36.1220  -15.4729 C   0  0  2  0  0  0  0  0  0  0  0  0
   31.0873   36.6371  -15.8475 N   0  0  0  0  0  0  0  0  0  0  0  0
   35.9081   38.0986  -13.0307 C   0  0  1  0  0  0  0  0  0  0  0  0
   38.4857   41.1378  -14.1441 C   0  0  1  0  0  0  0  0  0  0  0  0
   38.1259   34.6195  -12.9956 C   0  0  2  0  0  0  0  0  0  0  0  0
   38.5053   35.5207  -14.0934 N   0  0  0  0  0  0  0  0  0  0  0  0
   32.3339   34.6341  -15.1191 C   0  0  0  0  0  0  0  0  0  0  0  0
   35.3149   39.1908  -13.9220 C   0  0  2  0  0  0  0  0  0  0  0  0
   35.4069   38.8044  -15.2946 O   0  0  0  0  0  0  0  0  0  0  0  0
   39.0063   41.5790  -15.5160 C   0  0  2  0  0  0  0  0  0  0  0  0
   39.5774   40.4060  -16.1920 N   0  0  0  0  0  0  0  0  0  0  0  0
   38.5172   33.1870  -13.3671 C   0  0  1  0  0  0  0  0  0  0  0  0
   39.9407   33.1027  -13.4841 O   0  0  0  0  0  0  0  0  0  0  0  0
   33.7637   34.1314  -14.8931 C   0  0  2  0  0  0  0  0  0  0  0  0
   33.7243   32.7175  -14.4904 N   0  0  0  0  0  0  0  0  0  0  0  0
   36.3185   40.3114  -13.6577 C   0  0  2  0  0  0  0  0  0  0  0  0
   37.5721   40.0384  -14.3050 O   0  0  0  0  0  0  0  0  0  0  0  0
   40.0959   42.6502  -15.3766 C   0  0  1  0  0  0  0  0  0  0  0  0
   39.5274   43.8861  -14.9359 O   0  0  0  0  0  0  0  0  0  0  0  0
   38.0351   32.2198  -12.2844 C   0  0  2  0  0  0  0  0  0  0  0  0
   38.3047   30.8745  -12.6873 O   0  0  0  0  0  0  0  0  0  0  0  0
   34.5189   34.9300  -13.8233 C   0  0  2  0  0  0  0  0  0  0  0  0
   36.4854   40.1844  -12.1517 C   0  0  2  0  0  0  0  0  0  0  0  0
   36.2630   38.7961  -11.8224 O   0  0  0  0  0  0  0  0  0  0  0  0
   41.1673   42.2171  -14.3745 C   0  0  2  0  0  0  0  0  0  0  0  0
   41.8883   41.1083  -14.9193 O   0  0  0  0  0  0  0  0  0  0  0  0
   36.5319   32.4013  -12.0682 C   0  0  2  0  0  0  0  0  0  0  0  0
   36.2441   33.7634  -11.6952 O   0  0  0  0  0  0  0  0  0  0  0  0
   34.4303   36.4453  -13.9926 C   0  0  2  0  0  0  0  0  0  0  0  0
   34.9128   37.0862  -12.8005 O   0  0  0  0  0  0  0  0  0  0  0  0
   35.4687   41.0861  -11.4482 C   0  0  0  0  0  0  0  0  0  0  0  0
   35.7611   42.4505  -11.7575 O   0  0  0  0  0  0  0  0  0  0  0  0
   40.4889   41.8203  -13.0607 C   0  0  1  0  0  0  0  0  0  0  0  0
   39.5916   40.7273  -13.3243 O   0  0  0  0  0  0  0  0  0  0  0  0
   36.1060   31.4505  -10.9467 C   0  0  0  0  0  0  0  0  0  0  0  0
   34.6403   31.3476  -10.9018 O   0  0  0  0  0  0  0  0  0  0  0  0
   32.9878   36.8820  -14.2747 C   0  0  1  0  0  0  0  0  0  0  0  0
   32.9418   38.2897  -14.5178 O   0  0  0  0  0  0  0  0  0  0  0  0
   41.4979   41.3929  -11.9941 C   0  0  0  0  0  0  0  0  0  0  0  0
   40.7874   41.1235  -10.7363 N   0  0  0  0  0  0  0  0  0  0  0  0
  1  2  1  6  0  0  0
  1  7  1  0  0  0  0
  1 30  1  0  0  0  0
  3  4  1  1  0  0  0
  3  9  1  0  0  0  0
  3 39  1  0  0  0  0
  5 10  1  0  0  0  0
  5 26  1  0  0  0  0
  5 32  1  1  0  0  0
  6 12  1  0  0  0  0
  6 36  1  0  0  0  0
  6 19  1  6  0  0  0
  7  8  1  6  0  0  0
  7 14  1  0  0  0  0
  9 16  1  0  0  0  0
 10 11  1  6  0  0  0
 10 18  1  0  0  0  0
 12 13  1  1  0  0  0
 12 20  1  0  0  0  0
 14 15  1  1  0  0  0
 14 22  1  0  0  0  0
 16 17  1  1  0  0  0
 16 24  1  0  0  0  0
 18 19  1  6  0  0  0
 18 25  1  0  0  0  0
 20 21  1  1  0  0  0
 20 27  1  0  0  0  0
 22 23  1  6  0  0  0
 22 29  1  0  0  0  0
 24  2  1  6  0  0  0
 24 31  1  0  0  0  0
 25 26  1  0  0  0  0
 25 33  1  1  0  0  0
 27 28  1  6  0  0  0
 27 35  1  0  0  0  0
 29 30  1  0  0  0  0
 29 37  1  1  0  0  0
 31 32  1  1  0  0  0
 31 39  1  0  0  0  0
 33 34  1  0  0  0  0
 35 36  1  0  0  0  0
 35 41  1  1  0  0  0
 37 38  1  0  0  0  0
 39 40  1  6  0  0  0
 41 42  1  0  0  0  0
M  END
>  <CHROM.1>
-163.67161461,59.95736977,-126.62186957,175.59409414,-157.69811797,-64.71284294
-166.94258516,128.86330965,175.84622529,36.84952586,37.44215321,-13.51421143
-2.02514367,-0.19988865,-0.17442807

>  <Name>
3c44_lig

>  <RI>
0

>  <Rbt.Current_Directory>
/home/itssahil/PROJECTS/Mol_Feturizer/New_Systems/rnas/3c44

>  <Rbt.Executable>
rbdock ($Id: //depot/dev/client3/rdock/2013.1/src/exe/rbdock.cxx#4 $)

>  <Rbt.Library>
libRbt.so (2013.1, Build901 2013/11/27)

>  <Rbt.Parameter_File>
/export/apps/rDock/src/rDock_2013.1_src/data/scripts/dock_solv.prm

>  <Rbt.Receptor>
prm/pocket_docking_5.prm

>  <SCORE>
-20.1248

>  <SCORE.INTER>
-22.8606

>  <SCORE.INTER.CONST>
1

>  <SCORE.INTER.POLAR>
-1.94291

>  <SCORE.INTER.ROT>
9

>  <SCORE.INTER.SOLV>
16.4905

>  <SCORE.INTER.VDW>
-23.8609

>  <SCORE.INTER.norm>
-0.5443

>  <SCORE.INTRA>
2.73582

>  <SCORE.INTRA.DIHEDRAL>
3.65003

>  <SCORE.INTRA.DIHEDRAL.0>
14.8538

>  <SCORE.INTRA.POLAR>
0

>  <SCORE.INTRA.POLAR.0>
0

>  <SCORE.INTRA.REPUL>
0

>  <SCORE.INTRA.REPUL.0>
0

>  <SCORE.INTRA.SOLV>
-3.43484

>  <SCORE.INTRA.SOLV.lig_0>
-100.951

>  <SCORE.INTRA.VDW>
2.62823

>  <SCORE.INTRA.VDW.0>
-5.71388

>  <SCORE.INTRA.norm>
0.0651386

>  <SCORE.RESTR>
0

>  <SCORE.RESTR.CAVITY>
0

>  <SCORE.RESTR.norm>
0

>  <SCORE.SYSTEM>
0

>  <SCORE.SYSTEM.CONST>
0

>  <SCORE.SYSTEM.DIHEDRAL>
0

>  <SCORE.SYSTEM.SOLV>
0

>  <SCORE.SYSTEM.norm>
0

>  <SCORE.heavy>
42

>  <SCORE.norm>
-0.479162

>  <RMSD>
2.189

$$$$
3c44_lig
 OpenBabel11021811463D
libRbt.so/2013.1/901 2013/11/27
 42 45  0  0  0  0  0  0  0  0999 V2000
   36.9269   34.8650  -14.2628 C   0  0  2  0  0  0  0  0  0  0  0  0
   35.6840   34.3427  -14.7568 O   0  0  0  0  0  0  0  0  0  0  0  0
   32.7370   37.2270  -15.1872 C   0  0  2  0  0  0  0  0  0  0  0  0
   31.6041   38.1651  -15.1633 N   0  0  0  0  0  0  0  0  0  0  0  0
   36.6271   37.7633  -12.8981 C   0  0  1  0  0  0  0  0  0  0  0  0
   39.2840   40.8744  -12.4217 C   0  0  1  0  0  0  0  0  0  0  0  0
   38.0123   34.6643  -15.3256 C   0  0  2  0  0  0  0  0  0  0  0  0
   37.6040   35.2529  -16.6092 N   0  0  0  0  0  0  0  0  0  0  0  0
   32.2385   35.7790  -15.1968 C   0  0  0  0  0  0  0  0  0  0  0  0
   37.3968   37.7716  -11.5766 C   0  0  2  0  0  0  0  0  0  0  0  0
   36.6338   38.4415  -10.5712 O   0  0  0  0  0  0  0  0  0  0  0  0
   40.1680   41.0622  -11.1844 C   0  0  2  0  0  0  0  0  0  0  0  0
   39.3272   41.5627  -10.0882 N   0  0  0  0  0  0  0  0  0  0  0  0
   38.3210   33.1794  -15.5325 C   0  0  1  0  0  0  0  0  0  0  0  0
   39.4431   33.0492  -16.4107 O   0  0  0  0  0  0  0  0  0  0  0  0
   33.4566   34.8675  -15.3790 C   0  0  2  0  0  0  0  0  0  0  0  0
   33.0243   33.4626  -15.3317 N   0  0  0  0  0  0  0  0  0  0  0  0
   38.5763   38.6579  -11.9717 C   0  0  2  0  0  0  0  0  0  0  0  0
   38.1668   40.0299  -12.0935 O   0  0  0  0  0  0  0  0  0  0  0  0
   41.2881   42.0758  -11.4526 C   0  0  1  0  0  0  0  0  0  0  0  0
   42.2569   41.5239  -12.3480 O   0  0  0  0  0  0  0  0  0  0  0  0
   38.6452   32.5244  -14.1885 C   0  0  2  0  0  0  0  0  0  0  0  0
   38.8247   31.1174  -14.3706 O   0  0  0  0  0  0  0  0  0  0  0  0
   34.5372   35.0891  -14.3133 C   0  0  2  0  0  0  0  0  0  0  0  0
   38.8945   38.0979  -13.3491 C   0  0  2  0  0  0  0  0  0  0  0  0
   37.6541   37.5970  -13.8931 O   0  0  0  0  0  0  0  0  0  0  0  0
   40.7303   43.3622  -12.0640 C   0  0  2  0  0  0  0  0  0  0  0  0
   39.9324   44.0317  -11.0836 O   0  0  0  0  0  0  0  0  0  0  0  0
   37.4990   32.7746  -13.2074 C   0  0  2  0  0  0  0  0  0  0  0  0
   37.2858   34.1905  -13.0424 O   0  0  0  0  0  0  0  0  0  0  0  0
   34.9063   36.5541  -14.0894 C   0  0  2  0  0  0  0  0  0  0  0  0
   35.6941   36.6687  -12.8931 O   0  0  0  0  0  0  0  0  0  0  0  0
   39.9291   36.9782  -13.2177 C   0  0  0  0  0  0  0  0  0  0  0  0
   39.3593   35.9004  -12.4716 O   0  0  0  0  0  0  0  0  0  0  0  0
   39.8843   43.0051  -13.2890 C   0  0  1  0  0  0  0  0  0  0  0  0
   38.8049   42.1545  -12.8638 O   0  0  0  0  0  0  0  0  0  0  0  0
   37.8886   32.1446  -11.8677 C   0  0  0  0  0  0  0  0  0  0  0  0
   37.1161   32.7582  -10.7779 O   0  0  0  0  0  0  0  0  0  0  0  0
   33.6494   37.4246  -13.9741 C   0  0  1  0  0  0  0  0  0  0  0  0
   34.0169   38.8007  -13.8546 O   0  0  0  0  0  0  0  0  0  0  0  0
   39.3050   44.2438  -13.9735 C   0  0  0  0  0  0  0  0  0  0  0  0
   38.4867   44.9915  -13.0087 N   0  0  0  0  0  0  0  0  0  0  0  0
  1  2  1  6  0  0  0
  1  7  1  0  0  0  0
  1 30  1  0  0  0  0
  3  4  1  1  0  0  0
  3  9  1  0  0  0  0
  3 39  1  0  0  0  0
  5 10  1  0  0  0  0
  5 26  1  0  0  0  0
  5 32  1  1  0  0  0
  6 12  1  0  0  0  0
  6 36  1  0  0  0  0
  6 19  1  1  0  0  0
  7  8  1  6  0  0  0
  7 14  1  0  0  0  0
  9 16  1  0  0  0  0
 10 11  1  1  0  0  0
 10 18  1  0  0  0  0
 12 13  1  1  0  0  0
 12 20  1  0  0  0  0
 14 15  1  6  0  0  0
 14 22  1  0  0  0  0
 16 17  1  1  0  0  0
 16 24  1  0  0  0  0
 18 19  1  6  0  0  0
 18 25  1  0  0  0  0
 20 21  1  6  0  0  0
 20 27  1  0  0  0  0
 22 23  1  6  0  0  0
 22 29  1  0  0  0  0
 24  2  1  6  0  0  0
 24 31  1  0  0  0  0
 25 26  1  0  0  0  0
 25 33  1  1  0  0  0
 27 28  1  1  0  0  0
 27 35  1  0  0  0  0
 29 30  1  0  0  0  0
 29 37  1  1  0  0  0
 31 32  1  1  0  0  0
 31 39  1  0  0  0  0
 33 34  1  0  0  0  0
 35 36  1  0  0  0  0
 35 41  1  1  0  0  0
 37 38  1  0  0  0  0
 39 40  1  6  0  0  0
 41 42  1  0  0  0  0
M  END
>  <CHROM.1>
-145.73207662,-179.98051490,-74.41148648,178.06912494,153.91279933,64.21571249
158.65580149,150.71688261,-58.17544352,37.44662537,37.48704578,-13.34849471
-1.97302797,-0.27778353,0.14062806

>  <Name>
3c44_lig

>  <RI>
0

>  <Rbt.Current_Directory>
/home/itssahil/PROJECTS/Mol_Feturizer/New_Systems/rnas/3c44

>  <Rbt.Executable>
rbdock ($Id: //depot/dev/client3/rdock/2013.1/src/exe/rbdock.cxx#4 $)

>  <Rbt.Library>
libRbt.so (2013.1, Build901 2013/11/27)

>  <Rbt.Parameter_File>
/export/apps/rDock/src/rDock_2013.1_src/data/scripts/dock_solv.prm

>  <Rbt.Receptor>
prm/pocket_docking_4.prm

>  <SCORE>
-9.64434

>  <SCORE.INTER>
-13.6637

>  <SCORE.INTER.CONST>
1

>  <SCORE.INTER.POLAR>
-1.58266

>  <SCORE.INTER.ROT>
9

>  <SCORE.INTER.SOLV>
21.3763

>  <SCORE.INTER.VDW>
-20.5591

>  <SCORE.INTER.norm>
-0.325327

>  <SCORE.INTRA>
4.0194

>  <SCORE.INTRA.DIHEDRAL>
-1.12758

>  <SCORE.INTRA.DIHEDRAL.0>
14.8538

>  <SCORE.INTRA.POLAR>
0

>  <SCORE.INTRA.POLAR.0>
0

>  <SCORE.INTRA.REPUL>
0.0379487

>  <SCORE.INTRA.REPUL.0>
0

>  <SCORE.INTRA.SOLV>
-0.784571

>  <SCORE.INTRA.SOLV.lig_0>
-100.951

>  <SCORE.INTRA.VDW>
4.78573

>  <SCORE.INTRA.VDW.0>
-5.71388

>  <SCORE.INTRA.norm>
0.0957

>  <SCORE.RESTR>
0

>  <SCORE.RESTR.CAVITY>
0

>  <SCORE.RESTR.norm>
0

>  <SCORE.SYSTEM>
0

>  <SCORE.SYSTEM.CONST>
0

>  <SCORE.SYSTEM.DIHEDRAL>
0

>  <SCORE.SYSTEM.SOLV>
0

>  <SCORE.SYSTEM.norm>
0

>  <SCORE.heavy>
42

>  <SCORE.norm>
-0.229627

>  <RMSD>
2.255

$$$$
3c44_lig
 OpenBabel11021811463D
libRbt.so/2013.1/901 2013/11/27
 42 45  0  0  0  0  0  0  0  0999 V2000
   36.2711   35.2051  -12.8050 C   0  0  2  0  0  0  0  0  0  0  0  0
   35.6246   34.9817  -14.0675 O   0  0  0  0  0  0  0  0  0  0  0  0
   32.0280   36.1103  -15.7937 C   0  0  2  0  0  0  0  0  0  0  0  0
   30.6616   36.4471  -16.2221 N   0  0  0  0  0  0  0  0  0  0  0  0
   35.3420   38.4885  -13.3606 C   0  0  1  0  0  0  0  0  0  0  0  0
   37.8806   41.6010  -14.4127 C   0  0  1  0  0  0  0  0  0  0  0  0
   37.7863   35.2729  -13.0233 C   0  0  2  0  0  0  0  0  0  0  0  0
   38.1250   36.2828  -14.0363 N   0  0  0  0  0  0  0  0  0  0  0  0
   32.1121   34.6434  -15.3621 C   0  0  0  0  0  0  0  0  0  0  0  0
   34.6820   39.7649  -13.8844 C   0  0  2  0  0  0  0  0  0  0  0  0
   34.4731   39.6633  -15.2943 O   0  0  0  0  0  0  0  0  0  0  0  0
   38.5049   41.9077  -15.7780 C   0  0  2  0  0  0  0  0  0  0  0  0
   39.0071   40.6502  -16.3487 N   0  0  0  0  0  0  0  0  0  0  0  0
   38.3467   33.9176  -13.4619 C   0  0  1  0  0  0  0  0  0  0  0  0
   39.7754   33.9882  -13.4988 O   0  0  0  0  0  0  0  0  0  0  0  0
   33.5840   34.3236  -15.0807 C   0  0  2  0  0  0  0  0  0  0  0  0
   33.6979   32.9372  -14.6034 N   0  0  0  0  0  0  0  0  0  0  0  0
   35.8090   40.7624  -13.6242 C   0  0  2  0  0  0  0  0  0  0  0  0
   36.8857   40.5722  -14.5567 O   0  0  0  0  0  0  0  0  0  0  0  0
   39.6735   42.8927  -15.6438 C   0  0  1  0  0  0  0  0  0  0  0  0
   39.1912   44.1972  -15.3113 O   0  0  0  0  0  0  0  0  0  0  0  0
   37.9139   32.8326  -12.4741 C   0  0  2  0  0  0  0  0  0  0  0  0
   38.3459   31.5536  -12.9457 O   0  0  0  0  0  0  0  0  0  0  0  0
   34.2134   35.2586  -14.0404 C   0  0  2  0  0  0  0  0  0  0  0  0
   36.2533   40.3231  -12.2379 C   0  0  2  0  0  0  0  0  0  0  0  0
   35.9821   38.9080  -12.1412 O   0  0  0  0  0  0  0  0  0  0  0  0
   40.6526   42.4396  -14.5595 C   0  0  2  0  0  0  0  0  0  0  0  0
   41.3028   41.2423  -14.9950 O   0  0  0  0  0  0  0  0  0  0  0  0
   36.3906   32.8434  -12.3369 C   0  0  2  0  0  0  0  0  0  0  0  0
   35.9403   34.1393  -11.8952 O   0  0  0  0  0  0  0  0  0  0  0  0
   33.9545   36.7425  -14.2926 C   0  0  2  0  0  0  0  0  0  0  0  0
   34.3281   37.4954  -13.1272 O   0  0  0  0  0  0  0  0  0  0  0  0
   35.4723   41.1061  -11.1803 C   0  0  0  0  0  0  0  0  0  0  0  0
   35.9980   40.7976   -9.8875 O   0  0  0  0  0  0  0  0  0  0  0  0
   39.8778   42.1864  -13.2635 C   0  0  1  0  0  0  0  0  0  0  0  0
   38.9049   41.1557  -13.5095 O   0  0  0  0  0  0  0  0  0  0  0  0
   36.0098   31.7776  -11.3061 C   0  0  0  0  0  0  0  0  0  0  0  0
   36.7001   32.0364  -10.0343 O   0  0  0  0  0  0  0  0  0  0  0  0
   32.4791   36.9925  -14.6268 C   0  0  1  0  0  0  0  0  0  0  0  0
   32.2768   38.3710  -14.9461 O   0  0  0  0  0  0  0  0  0  0  0  0
   40.7921   41.7482  -12.1187 C   0  0  0  0  0  0  0  0  0  0  0  0
   39.9992   41.6212  -10.8880 N   0  0  0  0  0  0  0  0  0  0  0  0
  1  2  1  6  0  0  0
  1  7  1  0  0  0  0
  1 30  1  0  0  0  0
  3  4  1  1  0  0  0
  3  9  1  0  0  0  0
  3 39  1  0  0  0  0
  5 10  1  0  0  0  0
  5 26  1  0  0  0  0
  5 32  1  1  0  0  0
  6 12  1  0  0  0  0
  6 36  1  0  0  0  0
  6 19  1  6  0  0  0
  7  8  1  6  0  0  0
  7 14  1  0  0  0  0
  9 16  1  0  0  0  0
 10 11  1  6  0  0  0
 10 18  1  0  0  0  0
 12 13  1  1  0  0  0
 12 20  1  0  0  0  0
 14 15  1  1  0  0  0
 14 22  1  0  0  0  0
 16 17  1  1  0  0  0
 16 24  1  0  0  0  0
 18 19  1  6  0  0  0
 18 25  1  0  0  0  0
 20 21  1  1  0  0  0
 20 27  1  0  0  0  0
 22 23  1  6  0  0  0
 22 29  1  0  0  0  0
 24  2  1  6  0  0  0
 24 31  1  0  0  0  0
 25 26  1  0  0  0  0
 25 33  1  1  0  0  0
 27 28  1  6  0  0  0
 27 35  1  0  0  0  0
 29 30  1  0  0  0  0
 29 37  1  1  0  0  0
 31 32  1  1  0  0  0
 31 39  1  0  0  0  0
 33 34  1  0  0  0  0
 35 36  1  0  0  0  0
 35 41  1  1  0  0  0
 37 38  1  0  0  0  0
 39 40  1  6  0  0  0
 41 42  1  0  0  0  0
M  END
>  <CHROM.1>
-164.14890600,84.11800673,-146.90073304,173.58293628,-150.36954015,-173.61618208
56.58007815,120.90262867,175.81603588,36.52463078,37.76358892,-13.61709174
-2.02369487,-0.30495504,-0.21819412

>  <Name>
3c44_lig

>  <RI>
224

>  <Rbt.Current_Directory>
/home/itssahil/PROJECTS/Mol_Feturizer/New_Systems/rnas/3c44

>  <Rbt.Executable>
rbdock ($Id: //depot/dev/client3/rdock/2013.1/src/exe/rbdock.cxx#4 $)

>  <Rbt.Library>
libRbt.so (2013.1, Build901 2013/11/27)

>  <Rbt.Parameter_File>
/export/apps/rDock/src/rDock_2013.1_src/data/scripts/dock_solv.prm

>  <Rbt.Receptor>
prm/pocket_docking_3.prm

>  <SCORE>
-18.8081

>  <SCORE.INTER>
-20.6433

>  <SCORE.INTER.CONST>
1

>  <SCORE.INTER.POLAR>
-1.9066

>  <SCORE.INTER.ROT>
9

>  <SCORE.INTER.SOLV>
16.4233

>  <SCORE.INTER.VDW>
-22.4813

>  <SCORE.INTER.norm>
-0.491506

>  <SCORE.INTRA>
1.82327

>  <SCORE.INTRA.DIHEDRAL>
4.51773

>  <SCORE.INTRA.DIHEDRAL.0>
14.8538

>  <SCORE.INTRA.POLAR>
0

>  <SCORE.INTRA.POLAR.0>
0

>  <SCORE.INTRA.REPUL>
0

>  <SCORE.INTRA.REPUL.0>
0

>  <SCORE.INTRA.SOLV>
-2.28808

>  <SCORE.INTRA.SOLV.lig_0>
-100.951

>  <SCORE.INTRA.VDW>
0.70845

>  <SCORE.INTRA.VDW.0>
-5.71388

>  <SCORE.INTRA.norm>
0.0434112

>  <SCORE.RESTR>
0.0118643

>  <SCORE.RESTR.CAVITY>
0.0118643

>  <SCORE.RESTR.norm>
0.000282483

>  <SCORE.SYSTEM>
0

>  <SCORE.SYSTEM.CONST>
0

>  <SCORE.SYSTEM.DIHEDRAL>
0

>  <SCORE.SYSTEM.SOLV>
0

>  <SCORE.SYSTEM.norm>
0

>  <SCORE.heavy>
42

>  <SCORE.norm>
-0.447812

>  <RMSD>
2.289

$$$$
3c44_lig
 OpenBabel11021811463D
libRbt.so/2013.1/901 2013/11/27
 42 45  0  0  0  0  0  0  0  0999 V2000
   37.5740   35.5776  -14.2554 C   0  0  2  0  0  0  0  0  0  0  0  0
   37.0431   35.3112  -15.5627 O   0  0  0  0  0  0  0  0  0  0  0  0
   33.6928   36.8916  -17.4247 C   0  0  2  0  0  0  0  0  0  0  0  0
   32.3907   37.3409  -17.9411 N   0  0  0  0  0  0  0  0  0  0  0  0
   36.0993   38.7884  -14.0046 C   0  0  1  0  0  0  0  0  0  0  0  0
   37.1207   42.7786  -13.3604 C   0  0  1  0  0  0  0  0  0  0  0  0
   39.0867   35.3335  -14.2698 C   0  0  2  0  0  0  0  0  0  0  0  0
   39.7340   36.1185  -15.3309 N   0  0  0  0  0  0  0  0  0  0  0  0
   33.7663   35.3621  -17.4033 C   0  0  0  0  0  0  0  0  0  0  0  0
   35.2045   39.6003  -13.0669 C   0  0  2  0  0  0  0  0  0  0  0  0
   34.1193   40.1712  -13.8005 O   0  0  0  0  0  0  0  0  0  0  0  0
   37.7283   43.4685  -14.5862 C   0  0  2  0  0  0  0  0  0  0  0  0
   38.5115   42.4751  -15.3339 N   0  0  0  0  0  0  0  0  0  0  0  0
   39.4095   33.8516  -14.4769 C   0  0  1  0  0  0  0  0  0  0  0  0
   40.8180   33.6506  -14.3249 O   0  0  0  0  0  0  0  0  0  0  0  0
   35.1932   34.9691  -17.0064 C   0  0  2  0  0  0  0  0  0  0  0  0
   35.2867   33.5042  -16.9151 N   0  0  0  0  0  0  0  0  0  0  0  0
   36.1778   40.7128  -12.6822 C   0  0  2  0  0  0  0  0  0  0  0  0
   36.3744   41.6219  -13.7776 O   0  0  0  0  0  0  0  0  0  0  0  0
   38.6540   44.6197  -14.1716 C   0  0  1  0  0  0  0  0  0  0  0  0
   37.8912   45.7094  -13.6467 O   0  0  0  0  0  0  0  0  0  0  0  0
   38.6585   33.0077  -13.4455 C   0  0  2  0  0  0  0  0  0  0  0  0
   38.8754   31.6193  -13.7110 O   0  0  0  0  0  0  0  0  0  0  0  0
   35.6337   35.5776  -15.6692 C   0  0  2  0  0  0  0  0  0  0  0  0
   37.4465   39.9054  -12.4573 C   0  0  2  0  0  0  0  0  0  0  0  0
   37.3677   38.7533  -13.3244 O   0  0  0  0  0  0  0  0  0  0  0  0
   39.6557   44.1641  -13.1091 C   0  0  2  0  0  0  0  0  0  0  0  0
   40.5644   43.2311  -13.7006 O   0  0  0  0  0  0  0  0  0  0  0  0
   37.1629   33.3188  -13.5206 C   0  0  2  0  0  0  0  0  0  0  0  0
   36.9349   34.7229  -13.2889 O   0  0  0  0  0  0  0  0  0  0  0  0
   35.3611   37.0749  -15.5412 C   0  0  2  0  0  0  0  0  0  0  0  0
   35.5372   37.4752  -14.1725 O   0  0  0  0  0  0  0  0  0  0  0  0
   37.5289   39.4836  -10.9887 C   0  0  0  0  0  0  0  0  0  0  0  0
   37.5762   40.6532  -10.1684 O   0  0  0  0  0  0  0  0  0  0  0  0
   38.8931   43.5093  -11.9543 C   0  0  1  0  0  0  0  0  0  0  0  0
   38.1733   42.3755  -12.4698 O   0  0  0  0  0  0  0  0  0  0  0  0
   36.4614   32.4897  -12.4418 C   0  0  0  0  0  0  0  0  0  0  0  0
   35.0041   32.6487  -12.5513 O   0  0  0  0  0  0  0  0  0  0  0  0
   33.9408   37.4153  -16.0078 C   0  0  1  0  0  0  0  0  0  0  0  0
   33.7375   38.8295  -15.9641 O   0  0  0  0  0  0  0  0  0  0  0  0
   39.8255   43.0431  -10.8355 C   0  0  0  0  0  0  0  0  0  0  0  0
   39.6470   43.9117   -9.6636 N   0  0  0  0  0  0  0  0  0  0  0  0
  1  2  1  6  0  0  0
  1  7  1  0  0  0  0
  1 30  1  0  0  0  0
  3  4  1  1  0  0  0
  3  9  1  0  0  0  0
  3 39  1  0  0  0  0
  5 10  1  0  0  0  0
  5 26  1  0  0  0  0
  5 32  1  1  0  0  0
  6 12  1  0  0  0  0
  6 36  1  0  0  0  0
  6 19  1  6  0  0  0
  7  8  1  6  0  0  0
  7 14  1  0  0  0  0
  9 16  1  0  0  0  0
 10 11  1  6  0  0  0
 10 18  1  0  0  0  0
 12 13  1  1  0  0  0
 12 20  1  0  0  0  0
 14 15  1  1  0  0  0
 14 22  1  0  0  0  0
 16 17  1  1  0  0  0
 16 24  1  0  0  0  0
 18 19  1  6  0  0  0
 18 25  1  0  0  0  0
 20 21  1  1  0  0  0
 20 27  1  0  0  0  0
 22 23  1  6  0  0  0
 22 29  1  0  0  0  0
 24  2  1  6  0  0  0
 24 31  1  0  0  0  0
 25 26  1  0  0  0  0
 25 33  1  1  0  0  0
 27 28  1  6  0  0  0
 27 35  1  0  0  0  0
 29 30  1  0  0  0  0
 29 37  1  1  0  0  0
 31 32  1  1  0  0  0
 31 39  1  0  0  0  0
 33 34  1  0  0  0  0
 35 36  1  0  0  0  0
 35 41  1  1  0  0  0
 37 38  1  0  0  0  0
 39 40  1  6  0  0  0
 41 42  1  0  0  0  0
M  END
>  <CHROM.1>
-177.05210912,127.58593087,160.43517654,171.05727444,-168.43183248,-61.07438468
-174.53799173,144.35998404,109.00232572,37.05086299,38.35490161,-13.98077762
-1.80767390,-0.63169842,0.08860218

>  <Name>
3c44_lig

>  <RI>
0

>  <Rbt.Current_Directory>
/home/itssahil/PROJECTS/Mol_Feturizer/New_Systems/rnas/3c44

>  <Rbt.Executable>
rbdock ($Id: //depot/dev/client3/rdock/2013.1/src/exe/rbdock.cxx#4 $)

>  <Rbt.Library>
libRbt.so (2013.1, Build901 2013/11/27)

>  <Rbt.Parameter_File>
/export/apps/rDock/src/rDock_2013.1_src/data/scripts/dock_solv.prm

>  <Rbt.Receptor>
prm/pocket_docking_4.prm

>  <SCORE>
-7.30192

>  <SCORE.INTER>
-10.7698

>  <SCORE.INTER.CONST>
1

>  <SCORE.INTER.POLAR>
-1.02251

>  <SCORE.INTER.ROT>
9

>  <SCORE.INTER.SOLV>
11.4603

>  <SCORE.INTER.VDW>
-17.1916

>  <SCORE.INTER.norm>
-0.256424

>  <SCORE.INTRA>
3.46788

>  <SCORE.INTRA.DIHEDRAL>
4.73418

>  <SCORE.INTRA.DIHEDRAL.0>
14.8538

>  <SCORE.INTRA.POLAR>
0

>  <SCORE.INTRA.POLAR.0>
0

>  <SCORE.INTRA.REPUL>
0

>  <SCORE.INTRA.REPUL.0>
0

>  <SCORE.INTRA.SOLV>
-3.83785

>  <SCORE.INTRA.SOLV.lig_0>
-100.951

>  <SCORE.INTRA.VDW>
3.01972

>  <SCORE.INTRA.VDW.0>
-5.71388

>  <SCORE.INTRA.norm>
0.0825686

>  <SCORE.RESTR>
0

>  <SCORE.RESTR.CAVITY>
0

>  <SCORE.RESTR.norm>
0

>  <SCORE.SYSTEM>
0

>  <SCORE.SYSTEM.CONST>
0

>  <SCORE.SYSTEM.DIHEDRAL>
0

>  <SCORE.SYSTEM.SOLV>
0

>  <SCORE.SYSTEM.norm>
0

>  <SCORE.heavy>
42

>  <SCORE.norm>
-0.173855

>  <RMSD>
2.309

$$$$
3c44_lig
 OpenBabel11021811463D
libRbt.so/2013.1/901 2013/11/27
 42 45  0  0  0  0  0  0  0  0999 V2000
   35.6987   33.7460  -13.5387 C   0  0  2  0  0  0  0  0  0  0  0  0
   35.6767   34.7989  -12.5627 O   0  0  0  0  0  0  0  0  0  0  0  0
   34.1662   37.6089  -15.2107 C   0  0  2  0  0  0  0  0  0  0  0  0
   33.4823   38.6450  -15.9998 N   0  0  0  0  0  0  0  0  0  0  0  0
   36.9016   38.9009  -12.1325 C   0  0  1  0  0  0  0  0  0  0  0  0
   38.7775   42.6462  -11.9006 C   0  0  1  0  0  0  0  0  0  0  0  0
   35.9867   32.4160  -12.8343 C   0  0  2  0  0  0  0  0  0  0  0  0
   35.0260   32.1803  -11.7469 N   0  0  0  0  0  0  0  0  0  0  0  0
   33.1831   36.5111  -14.7940 C   0  0  0  0  0  0  0  0  0  0  0  0
   37.0950   39.5382  -10.7557 C   0  0  2  0  0  0  0  0  0  0  0  0
   35.9429   40.3088  -10.4083 O   0  0  0  0  0  0  0  0  0  0  0  0
   38.2016   43.8715  -12.6181 C   0  0  2  0  0  0  0  0  0  0  0  0
   37.7110   43.4461  -13.9363 N   0  0  0  0  0  0  0  0  0  0  0  0
   37.4062   32.3849  -12.2625 C   0  0  1  0  0  0  0  0  0  0  0  0
   37.6823   31.0748  -11.7578 O   0  0  0  0  0  0  0  0  0  0  0  0
   33.9878   35.3970  -14.1162 C   0  0  2  0  0  0  0  0  0  0  0  0
   33.0682   34.3499  -13.6461 N   0  0  0  0  0  0  0  0  0  0  0  0
   38.2467   40.4900  -11.0726 C   0  0  2  0  0  0  0  0  0  0  0  0
   37.7896   41.6014  -11.8606 O   0  0  0  0  0  0  0  0  0  0  0  0
   39.2723   44.9531  -12.8130 C   0  0  1  0  0  0  0  0  0  0  0  0
   39.6080   45.5548  -11.5600 O   0  0  0  0  0  0  0  0  0  0  0  0
   38.4151   32.7335  -13.3584 C   0  0  2  0  0  0  0  0  0  0  0  0
   39.7276   32.8112  -12.7961 O   0  0  0  0  0  0  0  0  0  0  0  0
   34.8200   35.8950  -12.9280 C   0  0  2  0  0  0  0  0  0  0  0  0
   39.1245   39.5883  -11.9261 C   0  0  2  0  0  0  0  0  0  0  0  0
   38.2446   38.6547  -12.5890 O   0  0  0  0  0  0  0  0  0  0  0  0
   40.5416   44.3648  -13.4314 C   0  0  2  0  0  0  0  0  0  0  0  0
   40.2576   43.9619  -14.7742 O   0  0  0  0  0  0  0  0  0  0  0  0
   38.0438   34.0773  -13.9873 C   0  0  2  0  0  0  0  0  0  0  0  0
   36.7087   34.0217  -14.5271 O   0  0  0  0  0  0  0  0  0  0  0  0
   35.6466   37.1453  -13.2213 C   0  0  2  0  0  0  0  0  0  0  0  0
   36.1466   37.6853  -11.9871 O   0  0  0  0  0  0  0  0  0  0  0  0
   40.1276   38.8576  -11.0308 C   0  0  0  0  0  0  0  0  0  0  0  0
   40.8880   37.9466  -11.8275 O   0  0  0  0  0  0  0  0  0  0  0  0
   40.9913   43.1630  -12.5964 C   0  0  1  0  0  0  0  0  0  0  0  0
   39.9389   42.1824  -12.6073 O   0  0  0  0  0  0  0  0  0  0  0  0
   39.0494   34.3597  -15.1064 C   0  0  0  0  0  0  0  0  0  0  0  0
   39.2161   33.1660  -15.9480 O   0  0  0  0  0  0  0  0  0  0  0  0
   34.8060   38.1994  -13.9516 C   0  0  1  0  0  0  0  0  0  0  0  0
   35.6207   39.3225  -14.2949 O   0  0  0  0  0  0  0  0  0  0  0  0
   42.2723   42.5279  -13.1388 C   0  0  0  0  0  0  0  0  0  0  0  0
   42.0084   41.9700  -14.4725 N   0  0  0  0  0  0  0  0  0  0  0  0
  1  2  1  1  0  0  0
  1  7  1  0  0  0  0
  1 30  1  0  0  0  0
  3  4  1  1  0  0  0
  3  9  1  0  0  0  0
  3 39  1  0  0  0  0
  5 10  1  0  0  0  0
  5 26  1  0  0  0  0
  5 32  1  1  0  0  0
  6 12  1  0  0  0  0
  6 36  1  0  0  0  0
  6 19  1  6  0  0  0
  7  8  1  1  0  0  0
  7 14  1  0  0  0  0
  9 16  1  0  0  0  0
 10 11  1  6  0  0  0
 10 18  1  0  0  0  0
 12 13  1  6  0  0  0
 12 20  1  0  0  0  0
 14 15  1  6  0  0  0
 14 22  1  0  0  0  0
 16 17  1  1  0  0  0
 16 24  1  0  0  0  0
 18 19  1  6  0  0  0
 18 25  1  0  0  0  0
 20 21  1  1  0  0  0
 20 27  1  0  0  0  0
 22 23  1  1  0  0  0
 22 29  1  0  0  0  0
 24  2  1  6  0  0  0
 24 31  1  0  0  0  0
 25 26  1  0  0  0  0
 25 33  1  1  0  0  0
 27 28  1  6  0  0  0
 27 35  1  0  0  0  0
 29 30  1  0  0  0  0
 29 37  1  6  0  0  0
 31 32  1  1  0  0  0
 31 39  1  0  0  0  0
 33 34  1  0  0  0  0
 35 36  1  0  0  0  0
 35 41  1  6  0  0  0
 37 38  1  0  0  0  0
 39 40  1  6  0  0  0
 41 42  1  0  0  0  0
M  END
>  <CHROM.1>
-151.22982836,167.02774627,-173.93331612,166.60549601,12.11773057,176.16462575
47.06384841,-177.72343409,-64.63552564,37.59430385,38.16063895,-13.04314779
1.90499785,0.13554772,-3.11895252

>  <Name>
3c44_lig

>  <RI>
0

>  <Rbt.Current_Directory>
/home/itssahil/PROJECTS/Mol_Feturizer/New_Systems/rnas/3c44

>  <Rbt.Executable>
rbdock ($Id: //depot/dev/client3/rdock/2013.1/src/exe/rbdock.cxx#4 $)

>  <Rbt.Library>
libRbt.so (2013.1, Build901 2013/11/27)

>  <Rbt.Parameter_File>
/export/apps/rDock/src/rDock_2013.1_src/data/scripts/dock_solv.prm

>  <Rbt.Receptor>
prm/pocket_docking_2.prm

>  <SCORE>
1.11396

>  <SCORE.INTER>
-11.9253

>  <SCORE.INTER.CONST>
1

>  <SCORE.INTER.POLAR>
-1.32022

>  <SCORE.INTER.ROT>
9

>  <SCORE.INTER.SOLV>
21.8058

>  <SCORE.INTER.VDW>
-20.4181

>  <SCORE.INTER.norm>
-0.283937

>  <SCORE.INTRA>
12.1873

>  <SCORE.INTRA.DIHEDRAL>
-2.11128

>  <SCORE.INTRA.DIHEDRAL.0>
14.8538

>  <SCORE.INTRA.POLAR>
0

>  <SCORE.INTRA.POLAR.0>
0

>  <SCORE.INTRA.REPUL>
0.0776242

>  <SCORE.INTRA.REPUL.0>
0

>  <SCORE.INTRA.SOLV>
-0.358568

>  <SCORE.INTRA.SOLV.lig_0>
-100.951

>  <SCORE.INTRA.VDW>
13.0341

>  <SCORE.INTRA.VDW.0>
-5.71388

>  <SCORE.INTRA.norm>
0.290173

>  <SCORE.RESTR>
0.852031

>  <SCORE.RESTR.CAVITY>
0.852031

>  <SCORE.RESTR.norm>
0.0202865

>  <SCORE.SYSTEM>
0

>  <SCORE.SYSTEM.CONST>
0

>  <SCORE.SYSTEM.DIHEDRAL>
0

>  <SCORE.SYSTEM.SOLV>
0

>  <SCORE.SYSTEM.norm>
0

>  <SCORE.heavy>
42

>  <SCORE.norm>
0.0265229

>  <RMSD>
2.380

$$$$
3c44_lig
 OpenBabel11021811463D
libRbt.so/2013.1/901 2013/11/27
 42 45  0  0  0  0  0  0  0  0999 V2000
   35.6952   33.6678  -13.6136 C   0  0  2  0  0  0  0  0  0  0  0  0
   35.7095   34.7360  -12.6541 O   0  0  0  0  0  0  0  0  0  0  0  0
   34.1547   37.5883  -15.2303 C   0  0  2  0  0  0  0  0  0  0  0  0
   33.4520   38.6302  -15.9948 N   0  0  0  0  0  0  0  0  0  0  0  0
   36.8300   38.8424  -12.0746 C   0  0  1  0  0  0  0  0  0  0  0  0
   38.8184   42.4657  -11.8224 C   0  0  1  0  0  0  0  0  0  0  0  0
   35.8833   32.3348  -12.8818 C   0  0  2  0  0  0  0  0  0  0  0  0
   34.8805   32.1746  -11.8189 N   0  0  0  0  0  0  0  0  0  0  0  0
   33.1981   36.4500  -14.8640 C   0  0  0  0  0  0  0  0  0  0  0  0
   37.2511   39.2855  -10.6727 C   0  0  2  0  0  0  0  0  0  0  0  0
   36.1821   39.9941  -10.0429 O   0  0  0  0  0  0  0  0  0  0  0  0
   38.1826   43.7548  -12.3534 C   0  0  2  0  0  0  0  0  0  0  0  0
   37.3729   43.4183  -13.5324 N   0  0  0  0  0  0  0  0  0  0  0  0
   37.2820   32.2285  -12.2692 C   0  0  1  0  0  0  0  0  0  0  0  0
   37.4649   30.9127  -11.7376 O   0  0  0  0  0  0  0  0  0  0  0  0
   34.0252   35.3372  -14.2116 C   0  0  2  0  0  0  0  0  0  0  0  0
   33.1300   34.2495  -13.7894 N   0  0  0  0  0  0  0  0  0  0  0  0
   38.3527   40.2787  -11.0372 C   0  0  2  0  0  0  0  0  0  0  0  0
   37.7938   41.4852  -11.5822 O   0  0  0  0  0  0  0  0  0  0  0  0
   39.2547   44.7733  -12.7624 C   0  0  1  0  0  0  0  0  0  0  0  0
   39.9117   45.2982  -11.6059 O   0  0  0  0  0  0  0  0  0  0  0  0
   38.3399   32.4983  -13.3409 C   0  0  2  0  0  0  0  0  0  0  0  0
   39.6387   32.5068  -12.7424 O   0  0  0  0  0  0  0  0  0  0  0  0
   34.8266   35.8189  -12.9957 C   0  0  2  0  0  0  0  0  0  0  0  0
   39.0682   39.5082  -12.1356 C   0  0  2  0  0  0  0  0  0  0  0  0
   38.0786   38.6694  -12.7701 O   0  0  0  0  0  0  0  0  0  0  0  0
   40.3022   44.1324  -13.6743 C   0  0  2  0  0  0  0  0  0  0  0  0
   39.6890   43.8062  -14.9248 O   0  0  0  0  0  0  0  0  0  0  0  0
   38.0675   33.8514  -13.9998 C   0  0  2  0  0  0  0  0  0  0  0  0
   36.7469   33.8667  -14.5766 O   0  0  0  0  0  0  0  0  0  0  0  0
   35.6207   37.1012  -13.2359 C   0  0  2  0  0  0  0  0  0  0  0  0
   36.0882   37.6140  -11.9776 O   0  0  0  0  0  0  0  0  0  0  0  0
   40.1893   38.6673  -11.5214 C   0  0  0  0  0  0  0  0  0  0  0  0
   41.2392   39.5342  -11.0863 O   0  0  0  0  0  0  0  0  0  0  0  0
   40.8443   42.8698  -12.9992 C   0  0  1  0  0  0  0  0  0  0  0  0
   39.7499   41.9595  -12.7917 O   0  0  0  0  0  0  0  0  0  0  0  0
   39.1188   34.0551  -15.0937 C   0  0  0  0  0  0  0  0  0  0  0  0
   40.4622   34.1072  -14.4990 O   0  0  0  0  0  0  0  0  0  0  0  0
   34.7601   38.1547  -13.9434 C   0  0  1  0  0  0  0  0  0  0  0  0
   35.5467   39.3112  -14.2379 O   0  0  0  0  0  0  0  0  0  0  0  0
   41.9173   42.1783  -13.8412 C   0  0  0  0  0  0  0  0  0  0  0  0
   43.0938   43.0533  -13.9392 N   0  0  0  0  0  0  0  0  0  0  0  0
  1  2  1  1  0  0  0
  1  7  1  0  0  0  0
  1 30  1  0  0  0  0
  3  4  1  1  0  0  0
  3  9  1  0  0  0  0
  3 39  1  0  0  0  0
  5 10  1  0  0  0  0
  5 26  1  0  0  0  0
  5 32  1  1  0  0  0
  6 12  1  0  0  0  0
  6 36  1  0  0  0  0
  6 19  1  6  0  0  0
  7  8  1  1  0  0  0
  7 14  1  0  0  0  0
  9 16  1  0  0  0  0
 10 11  1  6  0  0  0
 10 18  1  0  0  0  0
 12 13  1  6  0  0  0
 12 20  1  0  0  0  0
 14 15  1  6  0  0  0
 14 22  1  0  0  0  0
 16 17  1  1  0  0  0
 16 24  1  0  0  0  0
 18 19  1  6  0  0  0
 18 25  1  0  0  0  0
 20 21  1  1  0  0  0
 20 27  1  0  0  0  0
 22 23  1  1  0  0  0
 22 29  1  0  0  0  0
 24  2  1  6  0  0  0
 24 31  1  0  0  0  0
 25 26  1  0  0  0  0
 25 33  1  1  0  0  0
 27 28  1  6  0  0  0
 27 35  1  0  0  0  0
 29 30  1  0  0  0  0
 29 37  1  6  0  0  0
 31 32  1  1  0  0  0
 31 39  1  0  0  0  0
 33 34  1  0  0  0  0
 35 36  1  0  0  0  0
 35 41  1  6  0  0  0
 37 38  1  0  0  0  0
 39 40  1  6  0  0  0
 41 42  1  0  0  0  0
M  END
>  <CHROM.1>
-145.39629594,179.29221182,-177.91843341,175.17131973,7.49674526,-70.96412641
-62.75712831,-178.75931330,65.55850716,37.61467155,38.12306644,-13.00767448
1.92188903,0.15540831,-3.13812402

>  <Name>
3c44_lig

>  <RI>
0

>  <Rbt.Current_Directory>
/home/itssahil/PROJECTS/Mol_Feturizer/New_Systems/rnas/3c44

>  <Rbt.Executable>
rbdock ($Id: //depot/dev/client3/rdock/2013.1/src/exe/rbdock.cxx#4 $)

>  <Rbt.Library>
libRbt.so (2013.1, Build901 2013/11/27)

>  <Rbt.Parameter_File>
/export/apps/rDock/src/rDock_2013.1_src/data/scripts/dock_solv.prm

>  <Rbt.Receptor>
prm/pocket_docking_2.prm

>  <SCORE>
3.31837

>  <SCORE.INTER>
-11.3677

>  <SCORE.INTER.CONST>
1

>  <SCORE.INTER.POLAR>
-1.26279

>  <SCORE.INTER.ROT>
9

>  <SCORE.INTER.SOLV>
24.5801

>  <SCORE.INTER.VDW>
-21.1625

>  <SCORE.INTER.norm>
-0.270658

>  <SCORE.INTRA>
13.0881

>  <SCORE.INTRA.DIHEDRAL>
-2.37084

>  <SCORE.INTRA.DIHEDRAL.0>
14.8538

>  <SCORE.INTRA.POLAR>
0

>  <SCORE.INTRA.POLAR.0>
0

>  <SCORE.INTRA.REPUL>
0.0141642

>  <SCORE.INTRA.REPUL.0>
0

>  <SCORE.INTRA.SOLV>
-1.21283

>  <SCORE.INTRA.SOLV.lig_0>
-100.951

>  <SCORE.INTRA.VDW>
14.8091

>  <SCORE.INTRA.VDW.0>
-5.71388

>  <SCORE.INTRA.norm>
0.311622

>  <SCORE.RESTR>
1.59789

>  <SCORE.RESTR.CAVITY>
1.59789

>  <SCORE.RESTR.norm>
0.0380451

>  <SCORE.SYSTEM>
0

>  <SCORE.SYSTEM.CONST>
0

>  <SCORE.SYSTEM.DIHEDRAL>
0

>  <SCORE.SYSTEM.SOLV>
0

>  <SCORE.SYSTEM.norm>
0

>  <SCORE.heavy>
42

>  <SCORE.norm>
0.0790088

>  <RMSD>
2.432

$$$$
3c44_lig
 OpenBabel11021811463D
libRbt.so/2013.1/901 2013/11/27
 42 45  0  0  0  0  0  0  0  0999 V2000
   36.9140   34.4966  -12.6114 C   0  0  2  0  0  0  0  0  0  0  0  0
   36.0919   34.2483  -13.7622 O   0  0  0  0  0  0  0  0  0  0  0  0
   32.6571   36.1258  -15.1285 C   0  0  2  0  0  0  0  0  0  0  0  0
   31.3471   36.7222  -15.4320 N   0  0  0  0  0  0  0  0  0  0  0  0
   36.2689   37.8217  -12.6724 C   0  0  1  0  0  0  0  0  0  0  0  0
   38.8539   40.8501  -14.0891 C   0  0  1  0  0  0  0  0  0  0  0  0
   38.3859   34.3243  -13.0008 C   0  0  2  0  0  0  0  0  0  0  0  0
   38.7261   35.1730  -14.1519 N   0  0  0  0  0  0  0  0  0  0  0  0
   32.5182   34.6237  -14.8649 C   0  0  0  0  0  0  0  0  0  0  0  0
   35.8150   38.7638  -13.7885 C   0  0  2  0  0  0  0  0  0  0  0  0
   36.1455   38.2068  -15.0621 O   0  0  0  0  0  0  0  0  0  0  0  0
   40.2606   40.4941  -14.5813 C   0  0  2  0  0  0  0  0  0  0  0  0
   40.8513   39.5360  -13.6367 N   0  0  0  0  0  0  0  0  0  0  0  0
   38.7043   32.8668  -13.3431 C   0  0  1  0  0  0  0  0  0  0  0  0
   40.1140   32.7271  -13.5442 O   0  0  0  0  0  0  0  0  0  0  0  0
   33.9286   34.0444  -14.7119 C   0  0  2  0  0  0  0  0  0  0  0  0
   33.8342   32.6112  -14.3960 N   0  0  0  0  0  0  0  0  0  0  0  0
   36.7383   39.9495  -13.5152 C   0  0  2  0  0  0  0  0  0  0  0  0
   38.0883   39.6466  -13.9033 O   0  0  0  0  0  0  0  0  0  0  0  0
   41.1550   41.7389  -14.6492 C   0  0  1  0  0  0  0  0  0  0  0  0
   40.7434   42.5916  -15.7208 O   0  0  0  0  0  0  0  0  0  0  0  0
   38.2585   31.9554  -12.1981 C   0  0  2  0  0  0  0  0  0  0  0  0
   38.4565   30.5881  -12.5675 O   0  0  0  0  0  0  0  0  0  0  0  0
   34.7479   34.7397  -13.6175 C   0  0  2  0  0  0  0  0  0  0  0  0
   36.6499   40.0258  -11.9991 C   0  0  2  0  0  0  0  0  0  0  0  0
   36.4008   38.6839  -11.5271 O   0  0  0  0  0  0  0  0  0  0  0  0
   41.0962   42.5300  -13.3413 C   0  0  2  0  0  0  0  0  0  0  0  0
   41.7133   41.7589  -12.3066 O   0  0  0  0  0  0  0  0  0  0  0  0
   36.7789   32.1984  -11.8968 C   0  0  2  0  0  0  0  0  0  0  0  0
   36.5614   33.5819  -11.5568 O   0  0  0  0  0  0  0  0  0  0  0  0
   34.7252   36.2651  -13.6905 C   0  0  2  0  0  0  0  0  0  0  0  0
   35.2681   36.8077  -12.4757 O   0  0  0  0  0  0  0  0  0  0  0  0
   35.5121   40.9685  -11.6015 C   0  0  0  0  0  0  0  0  0  0  0  0
   34.2634   40.3682  -11.9526 O   0  0  0  0  0  0  0  0  0  0  0  0
   39.6317   42.8130  -12.9962 C   0  0  1  0  0  0  0  0  0  0  0  0
   38.9499   41.5558  -12.8416 O   0  0  0  0  0  0  0  0  0  0  0  0
   36.3921   31.3026  -10.7172 C   0  0  0  0  0  0  0  0  0  0  0  0
   34.9287   31.2265  -10.6001 O   0  0  0  0  0  0  0  0  0  0  0  0
   33.2976   36.7826  -13.9031 C   0  0  1  0  0  0  0  0  0  0  0  0
   33.3105   38.2035  -14.0576 O   0  0  0  0  0  0  0  0  0  0  0  0
   39.4868   43.6224  -11.7069 C   0  0  0  0  0  0  0  0  0  0  0  0
   38.0596   43.8111  -11.4120 N   0  0  0  0  0  0  0  0  0  0  0  0
  1  2  1  6  0  0  0
  1  7  1  0  0  0  0
  1 30  1  0  0  0  0
  3  4  1  1  0  0  0
  3  9  1  0  0  0  0
  3 39  1  0  0  0  0
  5 10  1  0  0  0  0
  5 26  1  0  0  0  0
  5 32  1  1  0  0  0
  6 12  1  0  0  0  0
  6 36  1  0  0  0  0
  6 19  1  1  0  0  0
  7  8  1  6  0  0  0
  7 14  1  0  0  0  0
  9 16  1  0  0  0  0
 10 11  1  6  0  0  0
 10 18  1  0  0  0  0
 12 13  1  1  0  0  0
 12 20  1  0  0  0  0
 14 15  1  1  0  0  0
 14 22  1  0  0  0  0
 16 17  1  1  0  0  0
 16 24  1  0  0  0  0
 18 19  1  1  0  0  0
 18 25  1  0  0  0  0
 20 21  1  6  0  0  0
 20 27  1  0  0  0  0
 22 23  1  6  0  0  0
 22 29  1  0  0  0  0
 24  2  1  6  0  0  0
 24 31  1  0  0  0  0
 25 26  1  0  0  0  0
 25 33  1  6  0  0  0
 27 28  1  1  0  0  0
 27 35  1  0  0  0  0
 29 30  1  0  0  0  0
 29 37  1  1  0  0  0
 31 32  1  1  0  0  0
 31 39  1  0  0  0  0
 33 34  1  0  0  0  0
 35 36  1  0  0  0  0
 35 41  1  1  0  0  0
 37 38  1  0  0  0  0
 39 40  1  6  0  0  0
 41 42  1  0  0  0  0
M  END
>  <CHROM.1>
-163.50885873,42.73299608,-176.68372592,160.13724197,-163.72491264,68.66503891
-165.48450347,130.98322933,-177.85376540,36.97480538,37.31083114,-13.20848621
-1.96156443,-0.12033956,-0.07819288

>  <Name>
3c44_lig

>  <RI>
0

>  <Rbt.Current_Directory>
/home/itssahil/PROJECTS/Mol_Feturizer/New_Systems/rnas/3c44

>  <Rbt.Executable>
rbdock ($Id: //depot/dev/client3/rdock/2013.1/src/exe/rbdock.cxx#4 $)

>  <Rbt.Library>
libRbt.so (2013.1, Build901 2013/11/27)

>  <Rbt.Parameter_File>
/export/apps/rDock/src/rDock_2013.1_src/data/scripts/dock_solv.prm

>  <Rbt.Receptor>
prm/pocket_docking_2.prm

>  <SCORE>
-19.6645

>  <SCORE.INTER>
-23.9596

>  <SCORE.INTER.CONST>
1

>  <SCORE.INTER.POLAR>
-2.45002

>  <SCORE.INTER.ROT>
9

>  <SCORE.INTER.SOLV>
20.0975

>  <SCORE.INTER.VDW>
-24.1055

>  <SCORE.INTER.norm>
-0.570467

>  <SCORE.INTRA>
2.97651

>  <SCORE.INTRA.DIHEDRAL>
-1.26751

>  <SCORE.INTRA.DIHEDRAL.0>
14.8538

>  <SCORE.INTRA.POLAR>
0

>  <SCORE.INTRA.POLAR.0>
0

>  <SCORE.INTRA.REPUL>
0.13138

>  <SCORE.INTRA.REPUL.0>
0

>  <SCORE.INTRA.SOLV>
-1.75655

>  <SCORE.INTRA.SOLV.lig_0>
-100.951

>  <SCORE.INTRA.VDW>
3.83164

>  <SCORE.INTRA.VDW.0>
-5.71388

>  <SCORE.INTRA.norm>
0.0708692

>  <SCORE.RESTR>
1.31864

>  <SCORE.RESTR.CAVITY>
1.31864

>  <SCORE.RESTR.norm>
0.0313961

>  <SCORE.SYSTEM>
0

>  <SCORE.SYSTEM.CONST>
0

>  <SCORE.SYSTEM.DIHEDRAL>
0

>  <SCORE.SYSTEM.SOLV>
0

>  <SCORE.SYSTEM.norm>
0

>  <SCORE.heavy>
42

>  <SCORE.norm>
-0.468202

>  <RMSD>
2.447

$$$$
3c44_lig
 OpenBabel11021811463D
libRbt.so/2013.1/901 2013/11/27
 42 45  0  0  0  0  0  0  0  0999 V2000
   36.5445   35.2824  -12.9652 C   0  0  2  0  0  0  0  0  0  0  0  0
   35.8630   35.0504  -14.2075 O   0  0  0  0  0  0  0  0  0  0  0  0
   32.2785   36.4312  -15.7678 C   0  0  2  0  0  0  0  0  0  0  0  0
   30.9156   36.8337  -16.1477 N   0  0  0  0  0  0  0  0  0  0  0  0
   35.1884   38.7246  -13.0432 C   0  0  1  0  0  0  0  0  0  0  0  0
   38.5099   40.7271  -12.7729 C   0  0  1  0  0  0  0  0  0  0  0  0
   38.0565   35.2704  -13.2135 C   0  0  2  0  0  0  0  0  0  0  0  0
   38.4224   36.2303  -14.2650 N   0  0  0  0  0  0  0  0  0  0  0  0
   32.3504   34.9187  -15.5389 C   0  0  0  0  0  0  0  0  0  0  0  0
   36.5121   38.6017  -13.7994 C   0  0  2  0  0  0  0  0  0  0  0  0
   37.5517   38.2054  -12.9027 O   0  0  0  0  0  0  0  0  0  0  0  0
   38.8738   41.5631  -11.5415 C   0  0  2  0  0  0  0  0  0  0  0  0
   38.4090   42.9392  -11.7641 N   0  0  0  0  0  0  0  0  0  0  0  0
   38.5432   33.8766  -13.6179 C   0  0  1  0  0  0  0  0  0  0  0  0
   39.9726   33.8772  -13.6835 O   0  0  0  0  0  0  0  0  0  0  0  0
   33.8193   34.5520  -15.3023 C   0  0  2  0  0  0  0  0  0  0  0  0
   33.9215   33.1128  -15.0172 N   0  0  0  0  0  0  0  0  0  0  0  0
   36.7250   40.0644  -14.1841 C   0  0  2  0  0  0  0  0  0  0  0  0
   37.1011   40.8453  -13.0378 O   0  0  0  0  0  0  0  0  0  0  0  0
   40.3910   41.5830  -11.3142 C   0  0  1  0  0  0  0  0  0  0  0  0
   40.8457   40.3028  -10.8679 O   0  0  0  0  0  0  0  0  0  0  0  0
   38.0793   32.8455  -12.5874 C   0  0  2  0  0  0  0  0  0  0  0  0
   38.4406   31.5329  -13.0249 O   0  0  0  0  0  0  0  0  0  0  0  0
   34.4540   35.3323  -14.1444 C   0  0  2  0  0  0  0  0  0  0  0  0
   35.3183   40.4442  -14.6189 C   0  0  2  0  0  0  0  0  0  0  0  0
   34.4091   39.6200  -13.8577 O   0  0  0  0  0  0  0  0  0  0  0  0
   41.1346   41.9478  -12.6001 C   0  0  2  0  0  0  0  0  0  0  0  0
   40.8507   43.3110  -12.9273 O   0  0  0  0  0  0  0  0  0  0  0  0
   36.5613   32.9337  -12.4226 C   0  0  2  0  0  0  0  0  0  0  0  0
   36.1819   34.2631  -12.0151 O   0  0  0  0  0  0  0  0  0  0  0  0
   34.2071   36.8387  -14.1933 C   0  0  2  0  0  0  0  0  0  0  0  0
   34.5844   37.4237  -12.9363 O   0  0  0  0  0  0  0  0  0  0  0  0
   35.1632   40.1922  -16.1202 C   0  0  0  0  0  0  0  0  0  0  0  0
   35.3221   38.7954  -16.3786 O   0  0  0  0  0  0  0  0  0  0  0  0
   40.6687   41.0196  -13.7250 C   0  0  1  0  0  0  0  0  0  0  0  0
   39.2533   41.2009  -13.9071 O   0  0  0  0  0  0  0  0  0  0  0  0
   36.1510   31.9207  -11.3507 C   0  0  0  0  0  0  0  0  0  0  0  0
   34.6868   31.7987  -11.3060 O   0  0  0  0  0  0  0  0  0  0  0  0
   32.7343   37.1434  -14.4917 C   0  0  1  0  0  0  0  0  0  0  0  0
   32.5433   38.5540  -14.6213 O   0  0  0  0  0  0  0  0  0  0  0  0
   41.3838   41.3067  -15.0459 C   0  0  0  0  0  0  0  0  0  0  0  0
   40.9746   40.3090  -16.0442 N   0  0  0  0  0  0  0  0  0  0  0  0
  1  2  1  6  0  0  0
  1  7  1  0  0  0  0
  1 30  1  0  0  0  0
  3  4  1  1  0  0  0
  3  9  1  0  0  0  0
  3 39  1  0  0  0  0
  5 10  1  0  0  0  0
  5 26  1  0  0  0  0
  5 32  1  6  0  0  0
  6 12  1  0  0  0  0
  6 36  1  0  0  0  0
  6 19  1  6  0  0  0
  7  8  1  6  0  0  0
  7 14  1  0  0  0  0
  9 16  1  0  0  0  0
 10 11  1  1  0  0  0
 10 18  1  0  0  0  0
 12 13  1  6  0  0  0
 12 20  1  0  0  0  0
 14 15  1  1  0  0  0
 14 22  1  0  0  0  0
 16 17  1  1  0  0  0
 16 24  1  0  0  0  0
 18 19  1  1  0  0  0
 18 25  1  0  0  0  0
 20 21  1  6  0  0  0
 20 27  1  0  0  0  0
 22 23  1  6  0  0  0
 22 29  1  0  0  0  0
 24  2  1  6  0  0  0
 24 31  1  0  0  0  0
 25 26  1  0  0  0  0
 25 33  1  6  0  0  0
 27 28  1  6  0  0  0
 27 35  1  0  0  0  0
 29 30  1  0  0  0  0
 29 37  1  1  0  0  0
 31 32  1  1  0  0  0
 31 39  1  0  0  0  0
 33 34  1  0  0  0  0
 35 36  1  0  0  0  0
 35 41  1  6  0  0  0
 37 38  1  0  0  0  0
 39 40  1  6  0  0  0
 41 42  1  0  0  0  0
M  END
>  <CHROM.1>
-167.06961549,-64.27203055,-179.62733857,82.34936327,-158.81834911,63.02046002
-170.60497190,143.39362320,175.16075758,36.76904135,37.55867686,-13.63642113
-2.18195662,-0.34544811,-0.14927931

>  <Name>
3c44_lig

>  <RI>
0

>  <Rbt.Current_Directory>
/home/itssahil/PROJECTS/Mol_Feturizer/New_Systems/rnas/3c44

>  <Rbt.Executable>
rbdock ($Id: //depot/dev/client3/rdock/2013.1/src/exe/rbdock.cxx#4 $)

>  <Rbt.Library>
libRbt.so (2013.1, Build901 2013/11/27)

>  <Rbt.Parameter_File>
/export/apps/rDock/src/rDock_2013.1_src/data/scripts/dock_solv.prm

>  <Rbt.Receptor>
prm/pocket_docking_4.prm

>  <SCORE>
-14.7463

>  <SCORE.INTER>
-16.3397

>  <SCORE.INTER.CONST>
1

>  <SCORE.INTER.POLAR>
-1.88209

>  <SCORE.INTER.ROT>
9

>  <SCORE.INTER.SOLV>
13.7871

>  <SCORE.INTER.VDW>
-18.8152

>  <SCORE.INTER.norm>
-0.389041

>  <SCORE.INTRA>
1.59348

>  <SCORE.INTRA.DIHEDRAL>
-4.26798

>  <SCORE.INTRA.DIHEDRAL.0>
14.8538

>  <SCORE.INTRA.POLAR>
0

>  <SCORE.INTRA.POLAR.0>
0

>  <SCORE.INTRA.REPUL>
0

>  <SCORE.INTRA.REPUL.0>
0

>  <SCORE.INTRA.SOLV>
0.150251

>  <SCORE.INTRA.SOLV.lig_0>
-100.951

>  <SCORE.INTRA.VDW>
3.65234

>  <SCORE.INTRA.VDW.0>
-5.71388

>  <SCORE.INTRA.norm>
0.0379399

>  <SCORE.RESTR>
0

>  <SCORE.RESTR.CAVITY>
0

>  <SCORE.RESTR.norm>
0

>  <SCORE.SYSTEM>
0

>  <SCORE.SYSTEM.CONST>
0

>  <SCORE.SYSTEM.DIHEDRAL>
0

>  <SCORE.SYSTEM.SOLV>
0

>  <SCORE.SYSTEM.norm>
0

>  <SCORE.heavy>
42

>  <SCORE.norm>
-0.351102

>  <RMSD>
2.454

$$$$
3c44_lig
 OpenBabel11021811463D
libRbt.so/2013.1/901 2013/11/27
 42 45  0  0  0  0  0  0  0  0999 V2000
   36.3379   33.7666  -14.6758 C   0  0  2  0  0  0  0  0  0  0  0  0
   35.9660   35.0311  -15.2455 O   0  0  0  0  0  0  0  0  0  0  0  0
   32.4052   37.0253  -15.9759 C   0  0  2  0  0  0  0  0  0  0  0  0
   31.0637   37.6218  -16.0687 N   0  0  0  0  0  0  0  0  0  0  0  0
   35.8928   38.4514  -13.3413 C   0  0  1  0  0  0  0  0  0  0  0  0
   38.2557   41.7954  -12.2129 C   0  0  1  0  0  0  0  0  0  0  0  0
   36.2915   33.8727  -13.1479 C   0  0  2  0  0  0  0  0  0  0  0  0
   34.9766   34.3497  -12.6954 N   0  0  0  0  0  0  0  0  0  0  0  0
   32.3219   35.4975  -16.0404 C   0  0  0  0  0  0  0  0  0  0  0  0
   36.9847   38.3462  -12.2756 C   0  0  2  0  0  0  0  0  0  0  0  0
   36.4392   38.6373  -10.9874 O   0  0  0  0  0  0  0  0  0  0  0  0
   37.6018   43.1734  -12.3583 C   0  0  2  0  0  0  0  0  0  0  0  0
   36.9024   43.2183  -13.6498 N   0  0  0  0  0  0  0  0  0  0  0  0
   37.3741   34.8187  -12.6224 C   0  0  1  0  0  0  0  0  0  0  0  0
   37.3952   34.7629  -11.1928 O   0  0  0  0  0  0  0  0  0  0  0  0
   33.7537   34.9542  -16.0961 C   0  0  2  0  0  0  0  0  0  0  0  0
   33.7164   33.4840  -16.0972 N   0  0  0  0  0  0  0  0  0  0  0  0
   37.8771   39.5085  -12.7064 C   0  0  2  0  0  0  0  0  0  0  0  0
   37.2636   40.7689  -12.3899 O   0  0  0  0  0  0  0  0  0  0  0  0
   38.6523   44.2912  -12.3243 C   0  0  1  0  0  0  0  0  0  0  0  0
   39.1924   44.4287  -11.0074 O   0  0  0  0  0  0  0  0  0  0  0  0
   38.7397   34.4002  -13.1704 C   0  0  2  0  0  0  0  0  0  0  0  0
   39.7306   35.3492  -12.7671 O   0  0  0  0  0  0  0  0  0  0  0  0
   34.6212   35.4266  -14.9228 C   0  0  2  0  0  0  0  0  0  0  0  0
   37.8823   39.3098  -14.2139 C   0  0  2  0  0  0  0  0  0  0  0  0
   36.6226   38.6936  -14.5584 O   0  0  0  0  0  0  0  0  0  0  0  0
   39.7964   43.9999  -13.2968 C   0  0  2  0  0  0  0  0  0  0  0  0
   39.2976   44.0817  -14.6350 O   0  0  0  0  0  0  0  0  0  0  0  0
   38.6804   34.3348  -14.6973 C   0  0  2  0  0  0  0  0  0  0  0  0
   37.6606   33.4064  -15.1159 O   0  0  0  0  0  0  0  0  0  0  0  0
   34.5545   36.9294  -14.6585 C   0  0  2  0  0  0  0  0  0  0  0  0
   35.1577   37.2160  -13.3862 O   0  0  0  0  0  0  0  0  0  0  0  0
   39.0585   38.4129  -14.6059 C   0  0  0  0  0  0  0  0  0  0  0  0
   38.8212   37.0908  -14.1175 O   0  0  0  0  0  0  0  0  0  0  0  0
   40.3446   42.5985  -13.0152 C   0  0  1  0  0  0  0  0  0  0  0  0
   39.2823   41.6477  -13.2068 O   0  0  0  0  0  0  0  0  0  0  0  0
   40.0503   33.8670  -15.1955 C   0  0  0  0  0  0  0  0  0  0  0  0
   40.5767   32.8166  -14.3120 O   0  0  0  0  0  0  0  0  0  0  0  0
   33.1035   37.4247  -14.6736 C   0  0  1  0  0  0  0  0  0  0  0  0
   33.0698   38.8447  -14.5135 O   0  0  0  0  0  0  0  0  0  0  0  0
   41.5111   42.2374  -13.9357 C   0  0  0  0  0  0  0  0  0  0  0  0
   41.0210   42.1257  -15.3166 N   0  0  0  0  0  0  0  0  0  0  0  0
  1  2  1  6  0  0  0
  1  7  1  0  0  0  0
  1 30  1  0  0  0  0
  3  4  1  1  0  0  0
  3  9  1  0  0  0  0
  3 39  1  0  0  0  0
  5 10  1  0  0  0  0
  5 26  1  0  0  0  0
  5 32  1  6  0  0  0
  6 12  1  0  0  0  0
  6 36  1  0  0  0  0
  6 19  1  6  0  0  0
  7  8  1  6  0  0  0
  7 14  1  0  0  0  0
  9 16  1  0  0  0  0
 10 11  1  1  0  0  0
 10 18  1  0  0  0  0
 12 13  1  6  0  0  0
 12 20  1  0  0  0  0
 14 15  1  1  0  0  0
 14 22  1  0  0  0  0
 16 17  1  1  0  0  0
 16 24  1  0  0  0  0
 18 19  1  6  0  0  0
 18 25  1  0  0  0  0
 20 21  1  1  0  0  0
 20 27  1  0  0  0  0
 22 23  1  6  0  0  0
 22 29  1  0  0  0  0
 24  2  1  6  0  0  0
 24 31  1  0  0  0  0
 25 26  1  0  0  0  0
 25 33  1  1  0  0  0
 27 28  1  6  0  0  0
 27 35  1  0  0  0  0
 29 30  1  0  0  0  0
 29 37  1  1  0  0  0
 31 32  1  1  0  0  0
 31 39  1  0  0  0  0
 33 34  1  0  0  0  0
 35 36  1  0  0  0  0
 35 41  1  6  0  0  0
 37 38  1  0  0  0  0
 39 40  1  6  0  0  0
 41 42  1  0  0  0  0
M  END
>  <CHROM.1>
-62.54517478,-153.15463843,160.65990722,153.93159688,-94.61365920,68.43703920
39.82515825,143.57617972,-66.57948822,37.08748007,38.04580586,-13.82673559
-1.97933414,-0.21290861,0.10127341

>  <Name>
3c44_lig

>  <RI>
0

>  <Rbt.Current_Directory>
/home/itssahil/PROJECTS/Mol_Feturizer/New_Systems/rnas/3c44

>  <Rbt.Executable>
rbdock ($Id: //depot/dev/client3/rdock/2013.1/src/exe/rbdock.cxx#4 $)

>  <Rbt.Library>
libRbt.so (2013.1, Build901 2013/11/27)

>  <Rbt.Parameter_File>
/export/apps/rDock/src/rDock_2013.1_src/data/scripts/dock_solv.prm

>  <Rbt.Receptor>
prm/pocket_docking_2.prm

>  <SCORE>
8.75813

>  <SCORE.INTER>
-1.9611

>  <SCORE.INTER.CONST>
1

>  <SCORE.INTER.POLAR>
-1.55836

>  <SCORE.INTER.ROT>
9

>  <SCORE.INTER.SOLV>
17.9068

>  <SCORE.INTER.VDW>
-11.6818

>  <SCORE.INTER.norm>
-0.0466928

>  <SCORE.INTRA>
9.3087

>  <SCORE.INTRA.DIHEDRAL>
3.81656

>  <SCORE.INTRA.DIHEDRAL.0>
14.8538

>  <SCORE.INTRA.POLAR>
0

>  <SCORE.INTRA.POLAR.0>
0

>  <SCORE.INTRA.REPUL>
0.0182919

>  <SCORE.INTRA.REPUL.0>
0

>  <SCORE.INTRA.SOLV>
4.81583

>  <SCORE.INTRA.SOLV.lig_0>
-100.951

>  <SCORE.INTRA.VDW>
4.90104

>  <SCORE.INTRA.VDW.0>
-5.71388

>  <SCORE.INTRA.norm>
0.221636

>  <SCORE.RESTR>
1.41053

>  <SCORE.RESTR.CAVITY>
1.41053

>  <SCORE.RESTR.norm>
0.033584

>  <SCORE.SYSTEM>
0

>  <SCORE.SYSTEM.CONST>
0

>  <SCORE.SYSTEM.DIHEDRAL>
0

>  <SCORE.SYSTEM.SOLV>
0

>  <SCORE.SYSTEM.norm>
0

>  <SCORE.heavy>
42

>  <SCORE.norm>
0.208527

>  <RMSD>
2.465

$$$$
3c44_lig
 OpenBabel11021811463D
libRbt.so/2013.1/901 2013/11/27
 42 45  0  0  0  0  0  0  0  0999 V2000
   36.5234   34.8077  -12.7017 C   0  0  2  0  0  0  0  0  0  0  0  0
   35.7911   34.5923  -13.9179 O   0  0  0  0  0  0  0  0  0  0  0  0
   32.1671   35.9082  -15.4427 C   0  0  2  0  0  0  0  0  0  0  0  0
   30.7982   36.3155  -15.7949 N   0  0  0  0  0  0  0  0  0  0  0  0
   35.6588   38.1738  -13.2098 C   0  0  1  0  0  0  0  0  0  0  0  0
   37.9789   41.3029  -14.8726 C   0  0  1  0  0  0  0  0  0  0  0  0
   38.0238   34.8005  -13.0126 C   0  0  2  0  0  0  0  0  0  0  0  0
   38.3455   35.7753  -14.0649 N   0  0  0  0  0  0  0  0  0  0  0  0
   32.1999   34.4376  -15.0168 C   0  0  0  0  0  0  0  0  0  0  0  0
   35.0129   39.2568  -14.0753 C   0  0  2  0  0  0  0  0  0  0  0  0
   35.0196   38.8545  -15.4463 O   0  0  0  0  0  0  0  0  0  0  0  0
   39.2803   40.9612  -15.6056 C   0  0  2  0  0  0  0  0  0  0  0  0
   40.0108   39.9656  -14.8092 N   0  0  0  0  0  0  0  0  0  0  0  0
   38.4938   33.4129  -13.4562 C   0  0  1  0  0  0  0  0  0  0  0  0
   39.9192   33.4158  -13.5809 O   0  0  0  0  0  0  0  0  0  0  0  0
   33.6668   34.0423  -14.8172 C   0  0  2  0  0  0  0  0  0  0  0  0
   33.7359   32.6503  -14.3473 N   0  0  0  0  0  0  0  0  0  0  0  0
   36.0322   40.3785  -13.8864 C   0  0  2  0  0  0  0  0  0  0  0  0
   37.2432   40.0958  -14.6066 O   0  0  0  0  0  0  0  0  0  0  0  0
   40.1631   42.2046  -15.7754 C   0  0  1  0  0  0  0  0  0  0  0  0
   39.5869   43.0991  -16.7308 O   0  0  0  0  0  0  0  0  0  0  0  0
   38.0733   32.3672  -12.4219 C   0  0  2  0  0  0  0  0  0  0  0  0
   38.4167   31.0611  -12.8922 O   0  0  0  0  0  0  0  0  0  0  0  0
   34.3995   34.9407  -13.8130 C   0  0  2  0  0  0  0  0  0  0  0  0
   36.2916   40.2685  -12.3922 C   0  0  2  0  0  0  0  0  0  0  0  0
   36.0884   38.8844  -12.0337 O   0  0  0  0  0  0  0  0  0  0  0  0
   40.3307   42.9451  -14.4475 C   0  0  2  0  0  0  0  0  0  0  0  0
   41.1041   42.1328  -13.5598 O   0  0  0  0  0  0  0  0  0  0  0  0
   36.5634   32.4517  -12.1931 C   0  0  2  0  0  0  0  0  0  0  0  0
   36.2007   33.7749  -11.7518 O   0  0  0  0  0  0  0  0  0  0  0  0
   34.2032   36.4367  -14.0501 C   0  0  2  0  0  0  0  0  0  0  0  0
   34.6784   37.1659  -12.9068 O   0  0  0  0  0  0  0  0  0  0  0  0
   35.3214   41.1800  -11.6377 C   0  0  0  0  0  0  0  0  0  0  0  0
   35.6422   42.5431  -11.9240 O   0  0  0  0  0  0  0  0  0  0  0  0
   38.9471   43.2197  -13.8525 C   0  0  1  0  0  0  0  0  0  0  0  0
   38.2883   41.9598  -13.6332 O   0  0  0  0  0  0  0  0  0  0  0  0
   36.1983   31.4235  -11.1193 C   0  0  0  0  0  0  0  0  0  0  0  0
   34.7372   31.3007  -11.0145 O   0  0  0  0  0  0  0  0  0  0  0  0
   32.7263   36.7626  -14.3022 C   0  0  1  0  0  0  0  0  0  0  0  0
   32.5774   38.1505  -14.6094 O   0  0  0  0  0  0  0  0  0  0  0  0
   39.0270   43.9796  -12.5279 C   0  0  0  0  0  0  0  0  0  0  0  0
   39.5579   45.3275  -12.7746 N   0  0  0  0  0  0  0  0  0  0  0  0
  1  2  1  6  0  0  0
  1  7  1  0  0  0  0
  1 30  1  0  0  0  0
  3  4  1  1  0  0  0
  3  9  1  0  0  0  0
  3 39  1  0  0  0  0
  5 10  1  0  0  0  0
  5 26  1  0  0  0  0
  5 32  1  1  0  0  0
  6 12  1  0  0  0  0
  6 36  1  0  0  0  0
  6 19  1  1  0  0  0
  7  8  1  6  0  0  0
  7 14  1  0  0  0  0
  9 16  1  0  0  0  0
 10 11  1  6  0  0  0
 10 18  1  0  0  0  0
 12 13  1  1  0  0  0
 12 20  1  0  0  0  0
 14 15  1  1  0  0  0
 14 22  1  0  0  0  0
 16 17  1  1  0  0  0
 16 24  1  0  0  0  0
 18 19  1  6  0  0  0
 18 25  1  0  0  0  0
 20 21  1  6  0  0  0
 20 27  1  0  0  0  0
 22 23  1  6  0  0  0
 22 29  1  0  0  0  0
 24  2  1  6  0  0  0
 24 31  1  0  0  0  0
 25 26  1  0  0  0  0
 25 33  1  1  0  0  0
 27 28  1  1  0  0  0
 27 35  1  0  0  0  0
 29 30  1  0  0  0  0
 29 37  1  1  0  0  0
 31 32  1  1  0  0  0
 31 39  1  0  0  0  0
 33 34  1  0  0  0  0
 35 36  1  0  0  0  0
 35 41  1  1  0  0  0
 37 38  1  0  0  0  0
 39 40  1  6  0  0  0
 41 42  1  0  0  0  0
M  END
>  <CHROM.1>
-163.90405937,64.82126446,178.42914353,157.69592984,-151.72159529,-67.80797824
-170.67594199,125.14391193,66.25667010,36.55996010,37.68441124,-13.67383130
-1.92382665,-0.14521164,-0.14490586

>  <Name>
3c44_lig

>  <RI>
0

>  <Rbt.Current_Directory>
/home/itssahil/PROJECTS/Mol_Feturizer/New_Systems/rnas/3c44

>  <Rbt.Executable>
rbdock ($Id: //depot/dev/client3/rdock/2013.1/src/exe/rbdock.cxx#4 $)

>  <Rbt.Library>
libRbt.so (2013.1, Build901 2013/11/27)

>  <Rbt.Parameter_File>
/export/apps/rDock/src/rDock_2013.1_src/data/scripts/dock_solv.prm

>  <Rbt.Receptor>
prm/pocket_docking_7.prm

>  <SCORE>
-21.7798

>  <SCORE.INTER>
-22.1446

>  <SCORE.INTER.CONST>
1

>  <SCORE.INTER.POLAR>
-1.81784

>  <SCORE.INTER.ROT>
9

>  <SCORE.INTER.SOLV>
16.0343

>  <SCORE.INTER.VDW>
-23.6484

>  <SCORE.INTER.norm>
-0.527253

>  <SCORE.INTRA>
0.364829

>  <SCORE.INTRA.DIHEDRAL>
-0.0868697

>  <SCORE.INTRA.DIHEDRAL.0>
14.8538

>  <SCORE.INTRA.POLAR>
0

>  <SCORE.INTRA.POLAR.0>
0

>  <SCORE.INTRA.REPUL>
0

>  <SCORE.INTRA.REPUL.0>
0

>  <SCORE.INTRA.SOLV>
-1.95808

>  <SCORE.INTRA.SOLV.lig_0>
-100.951

>  <SCORE.INTRA.VDW>
1.3873

>  <SCORE.INTRA.VDW.0>
-5.71388

>  <SCORE.INTRA.norm>
0.0086864

>  <SCORE.RESTR>
0

>  <SCORE.RESTR.CAVITY>
0

>  <SCORE.RESTR.norm>
0

>  <SCORE.SYSTEM>
0

>  <SCORE.SYSTEM.CONST>
0

>  <SCORE.SYSTEM.DIHEDRAL>
0

>  <SCORE.SYSTEM.SOLV>
0

>  <SCORE.SYSTEM.norm>
0

>  <SCORE.heavy>
42

>  <SCORE.norm>
-0.518567

>  <RMSD>
2.470

$$$$
3c44_lig
 OpenBabel11021811463D
libRbt.so/2013.1/901 2013/11/27
 42 45  0  0  0  0  0  0  0  0999 V2000
   36.6688   34.6929  -12.7430 C   0  0  2  0  0  0  0  0  0  0  0  0
   35.8544   34.3398  -13.8717 O   0  0  0  0  0  0  0  0  0  0  0  0
   32.1596   35.6413  -15.2296 C   0  0  2  0  0  0  0  0  0  0  0  0
   30.7746   36.0440  -15.5187 N   0  0  0  0  0  0  0  0  0  0  0  0
   35.7614   37.9091  -13.1680 C   0  0  1  0  0  0  0  0  0  0  0  0
   38.0588   40.9215  -15.0909 C   0  0  1  0  0  0  0  0  0  0  0  0
   38.1453   34.5991  -13.1419 C   0  0  2  0  0  0  0  0  0  0  0  0
   38.4189   35.4150  -14.3338 N   0  0  0  0  0  0  0  0  0  0  0  0
   32.2161   34.1723  -14.8008 C   0  0  0  0  0  0  0  0  0  0  0  0
   35.1372   38.9017  -14.1499 C   0  0  2  0  0  0  0  0  0  0  0  0
   35.2067   38.3825  -15.4794 O   0  0  0  0  0  0  0  0  0  0  0  0
   39.1918   40.5469  -16.0520 C   0  0  2  0  0  0  0  0  0  0  0  0
   40.0515   39.5572  -15.3883 N   0  0  0  0  0  0  0  0  0  0  0  0
   38.5553   33.1513  -13.4227 C   0  0  1  0  0  0  0  0  0  0  0  0
   39.9693   33.0945  -13.6342 O   0  0  0  0  0  0  0  0  0  0  0  0
   33.6919   33.7813  -14.6687 C   0  0  2  0  0  0  0  0  0  0  0  0
   33.7866   32.3912  -14.1980 N   0  0  0  0  0  0  0  0  0  0  0  0
   36.1320   40.0532  -14.0185 C   0  0  2  0  0  0  0  0  0  0  0  0
   37.3758   39.7305  -14.6618 O   0  0  0  0  0  0  0  0  0  0  0  0
   40.0379   41.7741  -16.4156 C   0  0  1  0  0  0  0  0  0  0  0  0
   39.2981   42.6573  -17.2626 O   0  0  0  0  0  0  0  0  0  0  0  0
   38.1804   32.2656  -12.2330 C   0  0  2  0  0  0  0  0  0  0  0  0
   38.4641   30.8988  -12.5433 O   0  0  0  0  0  0  0  0  0  0  0  0
   34.4683   34.6851  -13.7029 C   0  0  2  0  0  0  0  0  0  0  0  0
   36.3303   40.0773  -12.5111 C   0  0  2  0  0  0  0  0  0  0  0  0
   36.1316   38.7261  -12.0420 O   0  0  0  0  0  0  0  0  0  0  0  0
   40.4648   42.5386  -15.1614 C   0  0  2  0  0  0  0  0  0  0  0  0
   41.3861   41.7333  -14.4205 O   0  0  0  0  0  0  0  0  0  0  0  0
   36.6908   32.4254  -11.9251 C   0  0  2  0  0  0  0  0  0  0  0  0
   36.3864   33.8059  -11.6446 O   0  0  0  0  0  0  0  0  0  0  0  0
   34.2571   36.1797  -13.9355 C   0  0  2  0  0  0  0  0  0  0  0  0
   34.7834   36.9141  -12.8182 O   0  0  0  0  0  0  0  0  0  0  0  0
   35.3168   41.0335  -11.8787 C   0  0  0  0  0  0  0  0  0  0  0  0
   35.5680   41.1190  -10.4742 O   0  0  0  0  0  0  0  0  0  0  0  0
   39.2240   42.8445  -14.3185 C   0  0  1  0  0  0  0  0  0  0  0  0
   38.6070   41.5987  -13.9488 O   0  0  0  0  0  0  0  0  0  0  0  0
   36.3741   31.5607  -10.7022 C   0  0  0  0  0  0  0  0  0  0  0  0
   36.4644   30.1364  -11.0544 O   0  0  0  0  0  0  0  0  0  0  0  0
   32.7692   36.5010  -14.1194 C   0  0  1  0  0  0  0  0  0  0  0  0
   32.6024   37.8876  -14.4239 O   0  0  0  0  0  0  0  0  0  0  0  0
   39.5643   43.6295  -13.0510 C   0  0  0  0  0  0  0  0  0  0  0  0
   38.3461   43.8032  -12.2478 N   0  0  0  0  0  0  0  0  0  0  0  0
  1  2  1  6  0  0  0
  1  7  1  0  0  0  0
  1 30  1  0  0  0  0
  3  4  1  1  0  0  0
  3  9  1  0  0  0  0
  3 39  1  0  0  0  0
  5 10  1  0  0  0  0
  5 26  1  0  0  0  0
  5 32  1  1  0  0  0
  6 12  1  0  0  0  0
  6 36  1  0  0  0  0
  6 19  1  1  0  0  0
  7  8  1  6  0  0  0
  7 14  1  0  0  0  0
  9 16  1  0  0  0  0
 10 11  1  6  0  0  0
 10 18  1  0  0  0  0
 12 13  1  1  0  0  0
 12 20  1  0  0  0  0
 14 15  1  1  0  0  0
 14 22  1  0  0  0  0
 16 17  1  1  0  0  0
 16 24  1  0  0  0  0
 18 19  1  6  0  0  0
 18 25  1  0  0  0  0
 20 21  1  6  0  0  0
 20 27  1  0  0  0  0
 22 23  1  6  0  0  0
 22 29  1  0  0  0  0
 24  2  1  6  0  0  0
 24 31  1  0  0  0  0
 25 26  1  0  0  0  0
 25 33  1  1  0  0  0
 27 28  1  1  0  0  0
 27 35  1  0  0  0  0
 29 30  1  0  0  0  0
 29 37  1  1  0  0  0
 31 32  1  1  0  0  0
 31 39  1  0  0  0  0
 33 34  1  0  0  0  0
 35 36  1  0  0  0  0
 35 41  1  1  0  0  0
 37 38  1  0  0  0  0
 39 40  1  6  0  0  0
 41 42  1  0  0  0  0
M  END
>  <CHROM.1>
-166.63209352,58.26811180,-166.59053193,153.42195318,-157.96901469,-176.15291404
-69.50674675,124.21249518,-176.00799931,36.65721907,37.33047525,-13.70226888
-1.90201671,-0.08069367,-0.18353069

>  <Name>
3c44_lig

>  <RI>
224

>  <Rbt.Current_Directory>
/home/itssahil/PROJECTS/Mol_Feturizer/New_Systems/rnas/3c44

>  <Rbt.Executable>
rbdock ($Id: //depot/dev/client3/rdock/2013.1/src/exe/rbdock.cxx#4 $)

>  <Rbt.Library>
libRbt.so (2013.1, Build901 2013/11/27)

>  <Rbt.Parameter_File>
/export/apps/rDock/src/rDock_2013.1_src/data/scripts/dock_solv.prm

>  <Rbt.Receptor>
prm/pocket_docking_3.prm

>  <SCORE>
-20.403

>  <SCORE.INTER>
-20.7204

>  <SCORE.INTER.CONST>
1

>  <SCORE.INTER.POLAR>
-1.80986

>  <SCORE.INTER.ROT>
9

>  <SCORE.INTER.SOLV>
17.384

>  <SCORE.INTER.VDW>
-23.1754

>  <SCORE.INTER.norm>
-0.493342

>  <SCORE.INTRA>
0.317423

>  <SCORE.INTRA.DIHEDRAL>
-0.31816

>  <SCORE.INTRA.DIHEDRAL.0>
14.8538

>  <SCORE.INTRA.POLAR>
0

>  <SCORE.INTRA.POLAR.0>
0

>  <SCORE.INTRA.REPUL>
0

>  <SCORE.INTRA.REPUL.0>
0

>  <SCORE.INTRA.SOLV>
-2.72479

>  <SCORE.INTRA.SOLV.lig_0>
-100.951

>  <SCORE.INTRA.VDW>
1.8389

>  <SCORE.INTRA.VDW.0>
-5.71388

>  <SCORE.INTRA.norm>
0.00755768

>  <SCORE.RESTR>
0

>  <SCORE.RESTR.CAVITY>
0

>  <SCORE.RESTR.norm>
0

>  <SCORE.SYSTEM>
0

>  <SCORE.SYSTEM.CONST>
0

>  <SCORE.SYSTEM.DIHEDRAL>
0

>  <SCORE.SYSTEM.SOLV>
0

>  <SCORE.SYSTEM.norm>
0

>  <SCORE.heavy>
42

>  <SCORE.norm>
-0.485785

>  <RMSD>
2.507

$$$$
3c44_lig
 OpenBabel11021811463D
libRbt.so/2013.1/901 2013/11/27
 42 45  0  0  0  0  0  0  0  0999 V2000
   37.0844   34.3409  -12.5645 C   0  0  2  0  0  0  0  0  0  0  0  0
   36.2844   34.2700  -13.7547 O   0  0  0  0  0  0  0  0  0  0  0  0
   33.2357   36.8464  -14.8759 C   0  0  2  0  0  0  0  0  0  0  0  0
   32.0355   37.6593  -15.1260 N   0  0  0  0  0  0  0  0  0  0  0  0
   36.7686   37.2867  -11.7668 C   0  0  1  0  0  0  0  0  0  0  0  0
   39.3781   39.9082  -13.3652 C   0  0  1  0  0  0  0  0  0  0  0  0
   38.5513   34.0928  -12.9314 C   0  0  2  0  0  0  0  0  0  0  0  0
   38.9921   35.0195  -13.9839 N   0  0  0  0  0  0  0  0  0  0  0  0
   32.9197   35.3559  -15.0306 C   0  0  0  0  0  0  0  0  0  0  0  0
   36.5582   38.6568  -12.4131 C   0  0  2  0  0  0  0  0  0  0  0  0
   36.8014   38.5760  -13.8188 O   0  0  0  0  0  0  0  0  0  0  0  0
   40.7593   39.4895  -13.8798 C   0  0  2  0  0  0  0  0  0  0  0  0
   41.6820   39.4403  -12.7373 N   0  0  0  0  0  0  0  0  0  0  0  0
   38.7703   32.6547  -13.4080 C   0  0  1  0  0  0  0  0  0  0  0  0
   40.1714   32.4255  -13.5860 O   0  0  0  0  0  0  0  0  0  0  0  0
   34.2385   34.5847  -14.9118 C   0  0  2  0  0  0  0  0  0  0  0  0
   33.9671   33.1416  -14.9942 N   0  0  0  0  0  0  0  0  0  0  0  0
   37.7029   39.4280  -11.7591 C   0  0  2  0  0  0  0  0  0  0  0  0
   38.9693   39.0250  -12.3059 O   0  0  0  0  0  0  0  0  0  0  0  0
   41.2956   40.4949  -14.9072 C   0  0  1  0  0  0  0  0  0  0  0  0
   40.5560   40.4039  -16.1278 O   0  0  0  0  0  0  0  0  0  0  0  0
   38.2197   31.6745  -12.3706 C   0  0  2  0  0  0  0  0  0  0  0  0
   38.3264   30.3381  -12.8682 O   0  0  0  0  0  0  0  0  0  0  0  0
   34.9875   34.8737  -13.6050 C   0  0  2  0  0  0  0  0  0  0  0  0
   37.5872   38.9330  -10.3260 C   0  0  2  0  0  0  0  0  0  0  0  0
   37.0457   37.5958  -10.3883 O   0  0  0  0  0  0  0  0  0  0  0  0
   41.1968   41.9268  -14.3784 C   0  0  2  0  0  0  0  0  0  0  0  0
   42.1086   42.0802  -13.2869 O   0  0  0  0  0  0  0  0  0  0  0  0
   36.7534   32.0020  -12.0844 C   0  0  2  0  0  0  0  0  0  0  0  0
   36.6295   33.3589  -11.6149 O   0  0  0  0  0  0  0  0  0  0  0  0
   35.1236   36.3588  -13.2752 C   0  0  2  0  0  0  0  0  0  0  0  0
   35.5703   36.5057  -11.9174 O   0  0  0  0  0  0  0  0  0  0  0  0
   36.6634   39.8642   -9.5380 C   0  0  0  0  0  0  0  0  0  0  0  0
   36.9682   41.2195   -9.8745 O   0  0  0  0  0  0  0  0  0  0  0  0
   39.7609   42.1889  -13.9165 C   0  0  1  0  0  0  0  0  0  0  0  0
   39.4423   41.2550  -12.8698 O   0  0  0  0  0  0  0  0  0  0  0  0
   36.2617   31.0293  -11.0095 C   0  0  0  0  0  0  0  0  0  0  0  0
   34.8177   31.2022  -10.7951 O   0  0  0  0  0  0  0  0  0  0  0  0
   33.7888   37.0880  -13.4692 C   0  0  1  0  0  0  0  0  0  0  0  0
   33.9594   38.4888  -13.2421 O   0  0  0  0  0  0  0  0  0  0  0  0
   39.5727   43.6126  -13.3909 C   0  0  0  0  0  0  0  0  0  0  0  0
   38.1498   43.8365  -13.0996 N   0  0  0  0  0  0  0  0  0  0  0  0
  1  2  1  6  0  0  0
  1  7  1  0  0  0  0
  1 30  1  0  0  0  0
  3  4  1  1  0  0  0
  3  9  1  0  0  0  0
  3 39  1  0  0  0  0
  5 10  1  0  0  0  0
  5 26  1  0  0  0  0
  5 32  1  1  0  0  0
  6 12  1  0  0  0  0
  6 36  1  0  0  0  0
  6 19  1  1  0  0  0
  7  8  1  6  0  0  0
  7 14  1  0  0  0  0
  9 16  1  0  0  0  0
 10 11  1  6  0  0  0
 10 18  1  0  0  0  0
 12 13  1  1  0  0  0
 12 20  1  0  0  0  0
 14 15  1  1  0  0  0
 14 22  1  0  0  0  0
 16 17  1  1  0  0  0
 16 24  1  0  0  0  0
 18 19  1  6  0  0  0
 18 25  1  0  0  0  0
 20 21  1  6  0  0  0
 20 27  1  0  0  0  0
 22 23  1  6  0  0  0
 22 29  1  0  0  0  0
 24  2  1  6  0  0  0
 24 31  1  0  0  0  0
 25 26  1  0  0  0  0
 25 33  1  1  0  0  0
 27 28  1  1  0  0  0
 27 35  1  0  0  0  0
 29 30  1  0  0  0  0
 29 37  1  1  0  0  0
 31 32  1  1  0  0  0
 31 39  1  0  0  0  0
 33 34  1  0  0  0  0
 35 36  1  0  0  0  0
 35 41  1  1  0  0  0
 37 38  1  0  0  0  0
 39 40  1  6  0  0  0
 41 42  1  0  0  0  0
M  END
>  <CHROM.1>
-162.26838575,55.60274074,177.36159587,95.26454063,-174.67901029,-42.61264037
-174.00628076,124.60911634,174.12320332,37.38461426,37.10241945,-12.96597035
-1.97177660,-0.01897118,-0.04547271

>  <Name>
3c44_lig

>  <RI>
224

>  <Rbt.Current_Directory>
/home/itssahil/PROJECTS/Mol_Feturizer/New_Systems/rnas/3c44

>  <Rbt.Executable>
rbdock ($Id: //depot/dev/client3/rdock/2013.1/src/exe/rbdock.cxx#4 $)

>  <Rbt.Library>
libRbt.so (2013.1, Build901 2013/11/27)

>  <Rbt.Parameter_File>
/export/apps/rDock/src/rDock_2013.1_src/data/scripts/dock_solv.prm

>  <Rbt.Receptor>
prm/pocket_docking_3.prm

>  <SCORE>
-17.8082

>  <SCORE.INTER>
-19.3631

>  <SCORE.INTER.CONST>
1

>  <SCORE.INTER.POLAR>
-1.71729

>  <SCORE.INTER.ROT>
9

>  <SCORE.INTER.SOLV>
22.0313

>  <SCORE.INTER.VDW>
-24.1282

>  <SCORE.INTER.norm>
-0.461026

>  <SCORE.INTRA>
1.52941

>  <SCORE.INTRA.DIHEDRAL>
-0.142263

>  <SCORE.INTRA.DIHEDRAL.0>
14.8538

>  <SCORE.INTRA.POLAR>
0

>  <SCORE.INTRA.POLAR.0>
0

>  <SCORE.INTRA.REPUL>
0

>  <SCORE.INTRA.REPUL.0>
0

>  <SCORE.INTRA.SOLV>
-4.14888

>  <SCORE.INTRA.SOLV.lig_0>
-100.951

>  <SCORE.INTRA.VDW>
3.67498

>  <SCORE.INTRA.VDW.0>
-5.71388

>  <SCORE.INTRA.norm>
0.0364146

>  <SCORE.RESTR>
0.0254949

>  <SCORE.RESTR.CAVITY>
0.0254949

>  <SCORE.RESTR.norm>
0.000607021

>  <SCORE.SYSTEM>
0

>  <SCORE.SYSTEM.CONST>
0

>  <SCORE.SYSTEM.DIHEDRAL>
0

>  <SCORE.SYSTEM.SOLV>
0

>  <SCORE.SYSTEM.norm>
0

>  <SCORE.heavy>
42

>  <SCORE.norm>
-0.424004

>  <RMSD>
2.524

$$$$
3c44_lig
 OpenBabel11021811463D
libRbt.so/2013.1/901 2013/11/27
 42 45  0  0  0  0  0  0  0  0999 V2000
   35.1841   34.7114  -14.1485 C   0  0  2  0  0  0  0  0  0  0  0  0
   34.3695   35.3620  -13.1612 O   0  0  0  0  0  0  0  0  0  0  0  0
   33.5863   38.2461  -16.0349 C   0  0  2  0  0  0  0  0  0  0  0  0
   33.1574   39.3403  -16.9195 N   0  0  0  0  0  0  0  0  0  0  0  0
   36.3212   39.1365  -12.7699 C   0  0  1  0  0  0  0  0  0  0  0  0
   38.8387   42.5277  -12.2370 C   0  0  1  0  0  0  0  0  0  0  0  0
   35.1283   33.1966  -13.9248 C   0  0  2  0  0  0  0  0  0  0  0  0
   33.7379   32.7196  -13.9127 N   0  0  0  0  0  0  0  0  0  0  0  0
   32.3989   37.3509  -15.6690 C   0  0  0  0  0  0  0  0  0  0  0  0
   36.5304   39.8127  -11.4142 C   0  0  2  0  0  0  0  0  0  0  0  0
   35.5780   40.8638  -11.2407 O   0  0  0  0  0  0  0  0  0  0  0  0
   38.3381   43.9262  -12.6132 C   0  0  2  0  0  0  0  0  0  0  0  0
   37.9126   43.9013  -14.0194 N   0  0  0  0  0  0  0  0  0  0  0  0
   35.8031   32.8031  -12.6084 C   0  0  1  0  0  0  0  0  0  0  0  0
   35.8672   31.3764  -12.5198 O   0  0  0  0  0  0  0  0  0  0  0  0
   32.9422   36.1540  -14.8815 C   0  0  2  0  0  0  0  0  0  0  0  0
   31.8215   35.3007  -14.4586 N   0  0  0  0  0  0  0  0  0  0  0  0
   37.9083   40.4301  -11.6448 C   0  0  2  0  0  0  0  0  0  0  0  0
   37.8223   41.5545  -12.5354 O   0  0  0  0  0  0  0  0  0  0  0  0
   39.4470   44.9739  -12.4493 C   0  0  1  0  0  0  0  0  0  0  0  0
   39.7264   45.1925  -11.0640 O   0  0  0  0  0  0  0  0  0  0  0  0
   37.2180   33.3824  -12.5568 C   0  0  2  0  0  0  0  0  0  0  0  0
   37.8040   33.1063  -11.2819 O   0  0  0  0  0  0  0  0  0  0  0  0
   33.7461   36.5658  -13.6418 C   0  0  2  0  0  0  0  0  0  0  0  0
   38.6137   39.2794  -12.3451 C   0  0  2  0  0  0  0  0  0  0  0  0
   37.5988   38.5381  -13.0563 O   0  0  0  0  0  0  0  0  0  0  0  0
   40.7334   44.5262  -13.1454 C   0  0  2  0  0  0  0  0  0  0  0  0
   40.5160   44.5210  -14.5592 O   0  0  0  0  0  0  0  0  0  0  0  0
   37.1606   34.8943  -12.7807 C   0  0  2  0  0  0  0  0  0  0  0  0
   36.5398   35.1860  -14.0483 O   0  0  0  0  0  0  0  0  0  0  0  0
   34.7957   37.6437  -13.9044 C   0  0  2  0  0  0  0  0  0  0  0  0
   35.2768   38.1548  -12.6506 O   0  0  0  0  0  0  0  0  0  0  0  0
   39.3099   38.3993  -11.3048 C   0  0  0  0  0  0  0  0  0  0  0  0
   40.5570   38.9980  -10.9454 O   0  0  0  0  0  0  0  0  0  0  0  0
   41.1019   43.1232  -12.6559 C   0  0  1  0  0  0  0  0  0  0  0  0
   40.0258   42.2284  -12.9884 O   0  0  0  0  0  0  0  0  0  0  0  0
   38.5981   35.4203  -12.7687 C   0  0  0  0  0  0  0  0  0  0  0  0
   39.2916   35.0214  -14.0020 O   0  0  0  0  0  0  0  0  0  0  0  0
   34.2112   38.7848  -14.7454 C   0  0  1  0  0  0  0  0  0  0  0  0
   35.2315   39.7369  -15.0543 O   0  0  0  0  0  0  0  0  0  0  0  0
   42.3943   42.6092  -13.2916 C   0  0  0  0  0  0  0  0  0  0  0  0
   42.1964   42.4645  -14.7405 N   0  0  0  0  0  0  0  0  0  0  0  0
  1  2  1  1  0  0  0
  1  7  1  0  0  0  0
  1 30  1  0  0  0  0
  3  4  1  6  0  0  0
  3  9  1  0  0  0  0
  3 39  1  0  0  0  0
  5 10  1  0  0  0  0
  5 26  1  0  0  0  0
  5 32  1  1  0  0  0
  6 12  1  0  0  0  0
  6 36  1  0  0  0  0
  6 19  1  6  0  0  0
  7  8  1  1  0  0  0
  7 14  1  0  0  0  0
  9 16  1  0  0  0  0
 10 11  1  6  0  0  0
 10 18  1  0  0  0  0
 12 13  1  6  0  0  0
 12 20  1  0  0  0  0
 14 15  1  6  0  0  0
 14 22  1  0  0  0  0
 16 17  1  1  0  0  0
 16 24  1  0  0  0  0
 18 19  1  6  0  0  0
 18 25  1  0  0  0  0
 20 21  1  1  0  0  0
 20 27  1  0  0  0  0
 22 23  1  1  0  0  0
 22 29  1  0  0  0  0
 24  2  1  6  0  0  0
 24 31  1  0  0  0  0
 25 26  1  0  0  0  0
 25 33  1  1  0  0  0
 27 28  1  6  0  0  0
 27 35  1  0  0  0  0
 29 30  1  0  0  0  0
 29 37  1  6  0  0  0
 31 32  1  1  0  0  0
 31 39  1  0  0  0  0
 33 34  1  0  0  0  0
 35 36  1  0  0  0  0
 35 41  1  6  0  0  0
 37 38  1  0  0  0  0
 39 40  1  6  0  0  0
 41 42  1  0  0  0  0
M  END
>  <CHROM.1>
-147.38811545,167.88459907,-150.52295124,149.53071717,56.49804658,-81.15549906
72.62741232,177.17713579,-64.08183448,37.06785030,38.60311404,-13.23529169
2.12389619,0.39615667,2.99936737

>  <Name>
3c44_lig

>  <RI>
0

>  <Rbt.Current_Directory>
/home/itssahil/PROJECTS/Mol_Feturizer/New_Systems/rnas/3c44

>  <Rbt.Executable>
rbdock ($Id: //depot/dev/client3/rdock/2013.1/src/exe/rbdock.cxx#4 $)

>  <Rbt.Library>
libRbt.so (2013.1, Build901 2013/11/27)

>  <Rbt.Parameter_File>
/export/apps/rDock/src/rDock_2013.1_src/data/scripts/dock_solv.prm

>  <Rbt.Receptor>
prm/pocket_docking_2.prm

>  <SCORE>
0.573589

>  <SCORE.INTER>
-5.06449

>  <SCORE.INTER.CONST>
1

>  <SCORE.INTER.POLAR>
-1.12274

>  <SCORE.INTER.ROT>
9

>  <SCORE.INTER.SOLV>
24.4287

>  <SCORE.INTER.VDW>
-17.3768

>  <SCORE.INTER.norm>
-0.120583

>  <SCORE.INTRA>
3.04762

>  <SCORE.INTRA.DIHEDRAL>
-0.534866

>  <SCORE.INTRA.DIHEDRAL.0>
14.8538

>  <SCORE.INTRA.POLAR>
0

>  <SCORE.INTRA.POLAR.0>
0

>  <SCORE.INTRA.REPUL>
0.109377

>  <SCORE.INTRA.REPUL.0>
0

>  <SCORE.INTRA.SOLV>
-0.541948

>  <SCORE.INTRA.SOLV.lig_0>
-100.951

>  <SCORE.INTRA.VDW>
3.03914

>  <SCORE.INTRA.VDW.0>
-5.71388

>  <SCORE.INTRA.norm>
0.0725623

>  <SCORE.RESTR>
2.59047

>  <SCORE.RESTR.CAVITY>
2.59047

>  <SCORE.RESTR.norm>
0.0616778

>  <SCORE.SYSTEM>
0

>  <SCORE.SYSTEM.CONST>
0

>  <SCORE.SYSTEM.DIHEDRAL>
0

>  <SCORE.SYSTEM.SOLV>
0

>  <SCORE.SYSTEM.norm>
0

>  <SCORE.heavy>
42

>  <SCORE.norm>
0.0136569

>  <RMSD>
2.563

$$$$
3c44_lig
 OpenBabel11021811463D
libRbt.so/2013.1/901 2013/11/27
 42 45  0  0  0  0  0  0  0  0999 V2000
   35.1730   34.7657  -14.1284 C   0  0  2  0  0  0  0  0  0  0  0  0
   34.3536   35.3983  -13.1333 O   0  0  0  0  0  0  0  0  0  0  0  0
   32.7009   37.6189  -16.2199 C   0  0  2  0  0  0  0  0  0  0  0  0
   31.9596   38.4567  -17.1751 N   0  0  0  0  0  0  0  0  0  0  0  0
   35.9572   38.7672  -13.0473 C   0  0  1  0  0  0  0  0  0  0  0  0
   38.3054   41.7882  -13.2415 C   0  0  1  0  0  0  0  0  0  0  0  0
   35.0872   33.2457  -13.9554 C   0  0  2  0  0  0  0  0  0  0  0  0
   33.6886   32.7935  -13.9812 N   0  0  0  0  0  0  0  0  0  0  0  0
   31.7967   36.5229  -15.6484 C   0  0  0  0  0  0  0  0  0  0  0  0
   36.1540   39.9582  -12.1083 C   0  0  2  0  0  0  0  0  0  0  0  0
   35.8023   41.1708  -12.7774 O   0  0  0  0  0  0  0  0  0  0  0  0
   37.6367   42.2014  -14.5568 C   0  0  2  0  0  0  0  0  0  0  0  0
   38.3330   41.5260  -15.6605 N   0  0  0  0  0  0  0  0  0  0  0  0
   35.7331   32.7974  -12.6420 C   0  0  1  0  0  0  0  0  0  0  0  0
   35.7708   31.3677  -12.5993 O   0  0  0  0  0  0  0  0  0  0  0  0
   32.6677   35.6008  -14.7887 C   0  0  2  0  0  0  0  0  0  0  0  0
   31.8213   34.5684  -14.1716 N   0  0  0  0  0  0  0  0  0  0  0  0
   37.6717   39.9085  -11.9447 C   0  0  2  0  0  0  0  0  0  0  0  0
   38.3301   40.3535  -13.1421 O   0  0  0  0  0  0  0  0  0  0  0  0
   37.7240   43.7183  -14.7698 C   0  0  1  0  0  0  0  0  0  0  0  0
   36.8684   44.4016  -13.8501 O   0  0  0  0  0  0  0  0  0  0  0  0
   37.1568   33.3493  -12.5489 C   0  0  2  0  0  0  0  0  0  0  0  0
   37.7168   33.0214  -11.2746 O   0  0  0  0  0  0  0  0  0  0  0  0
   33.4232   36.3478  -13.6825 C   0  0  2  0  0  0  0  0  0  0  0  0
   37.8832   38.4124  -11.7740 C   0  0  2  0  0  0  0  0  0  0  0  0
   36.8257   37.7550  -12.5054 O   0  0  0  0  0  0  0  0  0  0  0  0
   39.1559   44.2192  -14.5740 C   0  0  2  0  0  0  0  0  0  0  0  0
   39.9728   43.7085  -15.6314 O   0  0  0  0  0  0  0  0  0  0  0  0
   37.1295   34.8685  -12.7239 C   0  0  2  0  0  0  0  0  0  0  0  0
   36.5348   35.2124  -13.9909 O   0  0  0  0  0  0  0  0  0  0  0  0
   34.1558   37.6004  -14.1590 C   0  0  2  0  0  0  0  0  0  0  0  0
   34.5756   38.3684  -13.0194 O   0  0  0  0  0  0  0  0  0  0  0  0
   37.8272   38.0559  -10.2870 C   0  0  0  0  0  0  0  0  0  0  0  0
   36.4921   38.2420   -9.8117 O   0  0  0  0  0  0  0  0  0  0  0  0
   39.6721   43.7334  -13.2171 C   0  0  1  0  0  0  0  0  0  0  0  0
   39.6491   42.2951  -13.2103 O   0  0  0  0  0  0  0  0  0  0  0  0
   38.5756   35.3679  -12.6717 C   0  0  0  0  0  0  0  0  0  0  0  0
   39.2652   35.0490  -13.9301 O   0  0  0  0  0  0  0  0  0  0  0  0
   33.2553   38.4521  -15.0616 C   0  0  1  0  0  0  0  0  0  0  0  0
   33.9876   39.5706  -15.5673 O   0  0  0  0  0  0  0  0  0  0  0  0
   41.0967   44.2121  -12.9345 C   0  0  0  0  0  0  0  0  0  0  0  0
   42.0157   43.5922  -13.8992 N   0  0  0  0  0  0  0  0  0  0  0  0
  1  2  1  1  0  0  0
  1  7  1  0  0  0  0
  1 30  1  0  0  0  0
  3  4  1  6  0  0  0
  3  9  1  0  0  0  0
  3 39  1  0  0  0  0
  5 10  1  0  0  0  0
  5 26  1  0  0  0  0
  5 32  1  1  0  0  0
  6 12  1  0  0  0  0
  6 36  1  0  0  0  0
  6 19  1  6  0  0  0
  7  8  1  1  0  0  0
  7 14  1  0  0  0  0
  9 16  1  0  0  0  0
 10 11  1  6  0  0  0
 10 18  1  0  0  0  0
 12 13  1  6  0  0  0
 12 20  1  0  0  0  0
 14 15  1  6  0  0  0
 14 22  1  0  0  0  0
 16 17  1  1  0  0  0
 16 24  1  0  0  0  0
 18 19  1  6  0  0  0
 18 25  1  0  0  0  0
 20 21  1  1  0  0  0
 20 27  1  0  0  0  0
 22 23  1  1  0  0  0
 22 29  1  0  0  0  0
 24  2  1  6  0  0  0
 24 31  1  0  0  0  0
 25 26  1  0  0  0  0
 25 33  1  1  0  0  0
 27 28  1  6  0  0  0
 27 35  1  0  0  0  0
 29 30  1  0  0  0  0
 29 37  1  6  0  0  0
 31 32  1  1  0  0  0
 31 39  1  0  0  0  0
 33 34  1  0  0  0  0
 35 36  1  0  0  0  0
 35 41  1  6  0  0  0
 37 38  1  0  0  0  0
 39 40  1  6  0  0  0
 41 42  1  0  0  0  0
M  END
>  <CHROM.1>
-127.83971432,159.40956466,-122.96067402,77.78759878,52.25525173,68.28871700
75.10926696,130.44107464,-65.54793547,36.45598581,38.29411366,-13.55105968
2.08158381,0.45762809,2.86790448

>  <Name>
3c44_lig

>  <RI>
0

>  <Rbt.Current_Directory>
/home/itssahil/PROJECTS/Mol_Feturizer/New_Systems/rnas/3c44

>  <Rbt.Executable>
rbdock ($Id: //depot/dev/client3/rdock/2013.1/src/exe/rbdock.cxx#4 $)

>  <Rbt.Library>
libRbt.so (2013.1, Build901 2013/11/27)

>  <Rbt.Parameter_File>
/export/apps/rDock/src/rDock_2013.1_src/data/scripts/dock_solv.prm

>  <Rbt.Receptor>
prm/pocket_docking_2.prm

>  <SCORE>
11.761

>  <SCORE.INTER>
-1.17825

>  <SCORE.INTER.CONST>
1

>  <SCORE.INTER.POLAR>
-0.557914

>  <SCORE.INTER.ROT>
9

>  <SCORE.INTER.SOLV>
25.8142

>  <SCORE.INTER.VDW>
-17.1305

>  <SCORE.INTER.norm>
-0.0280535

>  <SCORE.INTRA>
10.2702

>  <SCORE.INTRA.DIHEDRAL>
10.9418

>  <SCORE.INTRA.DIHEDRAL.0>
14.8538

>  <SCORE.INTRA.POLAR>
0

>  <SCORE.INTRA.POLAR.0>
0

>  <SCORE.INTRA.REPUL>
0

>  <SCORE.INTRA.REPUL.0>
0

>  <SCORE.INTRA.SOLV>
2.59648

>  <SCORE.INTRA.SOLV.lig_0>
-100.951

>  <SCORE.INTRA.VDW>
3.50111

>  <SCORE.INTRA.VDW.0>
-5.71388

>  <SCORE.INTRA.norm>
0.24453

>  <SCORE.RESTR>
2.66902

>  <SCORE.RESTR.CAVITY>
2.66902

>  <SCORE.RESTR.norm>
0.0635481

>  <SCORE.SYSTEM>
0

>  <SCORE.SYSTEM.CONST>
0

>  <SCORE.SYSTEM.DIHEDRAL>
0

>  <SCORE.SYSTEM.SOLV>
0

>  <SCORE.SYSTEM.norm>
0

>  <SCORE.heavy>
42

>  <SCORE.norm>
0.280024

>  <RMSD>
2.626

$$$$
3c44_lig
 OpenBabel11021811463D
libRbt.so/2013.1/901 2013/11/27
 42 45  0  0  0  0  0  0  0  0999 V2000
   38.7534   33.8474  -13.0658 C   0  0  2  0  0  0  0  0  0  0  0  0
   37.7050   34.0930  -14.0157 O   0  0  0  0  0  0  0  0  0  0  0  0
   34.5146   36.6992  -14.4828 C   0  0  2  0  0  0  0  0  0  0  0  0
   33.4751   37.7400  -14.4934 N   0  0  0  0  0  0  0  0  0  0  0  0
   38.7569   37.5068  -14.3715 C   0  0  1  0  0  0  0  0  0  0  0  0
   39.4879   41.0769  -13.4518 C   0  0  1  0  0  0  0  0  0  0  0  0
   39.6837   32.7614  -13.6163 C   0  0  2  0  0  0  0  0  0  0  0  0
   40.1821   33.1254  -14.9505 N   0  0  0  0  0  0  0  0  0  0  0  0
   34.6783   36.1144  -13.0769 C   0  0  0  0  0  0  0  0  0  0  0  0
   37.8225   38.6849  -14.0923 C   0  0  2  0  0  0  0  0  0  0  0  0
   38.0589   39.7302  -15.0374 O   0  0  0  0  0  0  0  0  0  0  0  0
   40.7673   41.4485  -14.2086 C   0  0  2  0  0  0  0  0  0  0  0  0
   41.9037   41.3171  -13.2863 N   0  0  0  0  0  0  0  0  0  0  0  0
   38.9719   31.4089  -13.7006 C   0  0  1  0  0  0  0  0  0  0  0  0
   39.9186   30.4002  -14.0662 O   0  0  0  0  0  0  0  0  0  0  0  0
   35.6566   34.9388  -13.1718 C   0  0  2  0  0  0  0  0  0  0  0  0
   35.8873   34.3883  -11.8276 N   0  0  0  0  0  0  0  0  0  0  0  0
   38.3595   39.1216  -12.7307 C   0  0  2  0  0  0  0  0  0  0  0  0
   39.6343   39.7705  -12.8679 O   0  0  0  0  0  0  0  0  0  0  0  0
   40.7083   42.8938  -14.7200 C   0  0  1  0  0  0  0  0  0  0  0  0
   39.7654   43.0070  -15.7891 O   0  0  0  0  0  0  0  0  0  0  0  0
   38.3536   31.0622  -12.3449 C   0  0  2  0  0  0  0  0  0  0  0  0
   37.5977   29.8535  -12.4566 O   0  0  0  0  0  0  0  0  0  0  0  0
   37.0070   35.3294  -13.7852 C   0  0  2  0  0  0  0  0  0  0  0  0
   38.5464   37.7699  -12.0600 C   0  0  2  0  0  0  0  0  0  0  0  0
   38.8291   36.8186  -13.1091 O   0  0  0  0  0  0  0  0  0  0  0  0
   40.3021   43.8560  -13.6025 C   0  0  2  0  0  0  0  0  0  0  0  0
   41.3538   43.9106  -12.6345 O   0  0  0  0  0  0  0  0  0  0  0  0
   37.4391   32.2018  -11.8929 C   0  0  2  0  0  0  0  0  0  0  0  0
   38.1831   33.4334  -11.8102 O   0  0  0  0  0  0  0  0  0  0  0  0
   36.8991   36.1322  -15.0800 C   0  0  2  0  0  0  0  0  0  0  0  0
   38.1846   36.6861  -15.4048 O   0  0  0  0  0  0  0  0  0  0  0  0
   37.2689   37.3936  -11.3063 C   0  0  0  0  0  0  0  0  0  0  0  0
   36.2039   38.2434  -11.7383 O   0  0  0  0  0  0  0  0  0  0  0  0
   39.0079   43.3525  -12.9580 C   0  0  1  0  0  0  0  0  0  0  0  0
   39.2500   42.0425  -12.4151 O   0  0  0  0  0  0  0  0  0  0  0  0
   36.8835   31.8325  -10.5151 C   0  0  0  0  0  0  0  0  0  0  0  0
   35.9345   30.7164  -10.6364 O   0  0  0  0  0  0  0  0  0  0  0  0
   35.8642   37.2553  -14.9439 C   0  0  1  0  0  0  0  0  0  0  0  0
   35.7146   37.9362  -16.1918 O   0  0  0  0  0  0  0  0  0  0  0  0
   38.5209   44.2750  -11.8398 C   0  0  0  0  0  0  0  0  0  0  0  0
   39.4925   44.2537  -10.7375 N   0  0  0  0  0  0  0  0  0  0  0  0
  1  2  1  6  0  0  0
  1  7  1  0  0  0  0
  1 30  1  0  0  0  0
  3  4  1  1  0  0  0
  3  9  1  0  0  0  0
  3 39  1  0  0  0  0
  5 10  1  0  0  0  0
  5 26  1  0  0  0  0
  5 32  1  6  0  0  0
  6 12  1  0  0  0  0
  6 36  1  0  0  0  0
  6 19  1  1  0  0  0
  7  8  1  6  0  0  0
  7 14  1  0  0  0  0
  9 16  1  0  0  0  0
 10 11  1  6  0  0  0
 10 18  1  0  0  0  0
 12 13  1  1  0  0  0
 12 20  1  0  0  0  0
 14 15  1  1  0  0  0
 14 22  1  0  0  0  0
 16 17  1  1  0  0  0
 16 24  1  0  0  0  0
 18 19  1  6  0  0  0
 18 25  1  0  0  0  0
 20 21  1  6  0  0  0
 20 27  1  0  0  0  0
 22 23  1  6  0  0  0
 22 29  1  0  0  0  0
 24  2  1  6  0  0  0
 24 31  1  0  0  0  0
 25 26  1  0  0  0  0
 25 33  1  6  0  0  0
 27 28  1  1  0  0  0
 27 35  1  0  0  0  0
 29 30  1  0  0  0  0
 29 37  1  1  0  0  0
 31 32  1  1  0  0  0
 31 39  1  0  0  0  0
 33 34  1  0  0  0  0
 35 36  1  0  0  0  0
 35 41  1  1  0  0  0
 37 38  1  0  0  0  0
 39 40  1  6  0  0  0
 41 42  1  0  0  0  0
M  END
>  <CHROM.1>
-163.46382640,-60.29277807,-152.08378671,72.27631603,-104.87899547,14.55745936
-69.86184658,-56.50657004,-65.46000519,38.13577592,37.23282734,-13.29447641
-1.77028565,-0.05658788,-0.06426377

>  <Name>
3c44_lig

>  <RI>
0

>  <Rbt.Current_Directory>
/home/itssahil/PROJECTS/Mol_Feturizer/New_Systems/rnas/3c44

>  <Rbt.Executable>
rbdock ($Id: //depot/dev/client3/rdock/2013.1/src/exe/rbdock.cxx#4 $)

>  <Rbt.Library>
libRbt.so (2013.1, Build901 2013/11/27)

>  <Rbt.Parameter_File>
/export/apps/rDock/src/rDock_2013.1_src/data/scripts/dock_solv.prm

>  <Rbt.Receptor>
prm/pocket_docking_2.prm

>  <SCORE>
11.0075

>  <SCORE.INTER>
-8.20576

>  <SCORE.INTER.CONST>
1

>  <SCORE.INTER.POLAR>
-1.4853

>  <SCORE.INTER.ROT>
9

>  <SCORE.INTER.SOLV>
20.7011

>  <SCORE.INTER.VDW>
-17.0198

>  <SCORE.INTER.norm>
-0.195375

>  <SCORE.INTRA>
16.3025

>  <SCORE.INTRA.DIHEDRAL>
1.86492

>  <SCORE.INTRA.DIHEDRAL.0>
14.8538

>  <SCORE.INTRA.POLAR>
0

>  <SCORE.INTRA.POLAR.0>
0

>  <SCORE.INTRA.REPUL>
0

>  <SCORE.INTRA.REPUL.0>
0

>  <SCORE.INTRA.SOLV>
4.91721

>  <SCORE.INTRA.SOLV.lig_0>
-100.951

>  <SCORE.INTRA.VDW>
12.9114

>  <SCORE.INTRA.VDW.0>
-5.71388

>  <SCORE.INTRA.norm>
0.388154

>  <SCORE.RESTR>
2.91081

>  <SCORE.RESTR.CAVITY>
2.91081

>  <SCORE.RESTR.norm>
0.0693049

>  <SCORE.SYSTEM>
0

>  <SCORE.SYSTEM.CONST>
0

>  <SCORE.SYSTEM.DIHEDRAL>
0

>  <SCORE.SYSTEM.SOLV>
0

>  <SCORE.SYSTEM.norm>
0

>  <SCORE.heavy>
42

>  <SCORE.norm>
0.262084

>  <RMSD>
2.630

$$$$
3c44_lig
 OpenBabel11021811463D
libRbt.so/2013.1/901 2013/11/27
 42 45  0  0  0  0  0  0  0  0999 V2000
   35.0412   33.8331  -13.9627 C   0  0  2  0  0  0  0  0  0  0  0  0
   34.5669   34.8051  -13.0183 O   0  0  0  0  0  0  0  0  0  0  0  0
   33.1890   37.0963  -16.1872 C   0  0  2  0  0  0  0  0  0  0  0  0
   32.5444   37.9722  -17.1777 N   0  0  0  0  0  0  0  0  0  0  0  0
   36.1619   38.5689  -13.1602 C   0  0  1  0  0  0  0  0  0  0  0  0
   39.2740   41.3654  -13.3075 C   0  0  1  0  0  0  0  0  0  0  0  0
   35.7864   32.7257  -13.2102 C   0  0  2  0  0  0  0  0  0  0  0  0
   34.9401   32.1473  -12.1565 N   0  0  0  0  0  0  0  0  0  0  0  0
   32.1881   36.0766  -15.6362 C   0  0  0  0  0  0  0  0  0  0  0  0
   36.4528   39.3917  -11.9042 C   0  0  2  0  0  0  0  0  0  0  0  0
   35.6424   40.5686  -11.8930 O   0  0  0  0  0  0  0  0  0  0  0  0
   39.4492   42.4057  -12.1962 C   0  0  2  0  0  0  0  0  0  0  0  0
   38.3493   43.3752  -12.2941 N   0  0  0  0  0  0  0  0  0  0  0  0
   37.0783   33.2527  -12.5805 C   0  0  1  0  0  0  0  0  0  0  0  0
   37.8144   32.1570  -12.0284 O   0  0  0  0  0  0  0  0  0  0  0  0
   32.9591   35.1059  -14.7354 C   0  0  2  0  0  0  0  0  0  0  0  0
   32.0188   34.1461  -14.1375 N   0  0  0  0  0  0  0  0  0  0  0  0
   37.8989   39.7925  -12.1888 C   0  0  2  0  0  0  0  0  0  0  0  0
   37.9597   40.7868  -13.2246 O   0  0  0  0  0  0  0  0  0  0  0  0
   40.7820   43.1517  -12.3412 C   0  0  1  0  0  0  0  0  0  0  0  0
   41.8755   42.2867  -12.0233 O   0  0  0  0  0  0  0  0  0  0  0  0
   37.9257   33.9537  -13.6438 C   0  0  2  0  0  0  0  0  0  0  0  0
   39.0774   34.5395  -13.0310 O   0  0  0  0  0  0  0  0  0  0  0  0
   33.7278   35.8117  -13.6113 C   0  0  2  0  0  0  0  0  0  0  0  0
   38.4528   38.4771  -12.7134 C   0  0  2  0  0  0  0  0  0  0  0  0
   37.3531   37.7802  -13.3380 O   0  0  0  0  0  0  0  0  0  0  0  0
   40.9672   43.6744  -13.7667 C   0  0  2  0  0  0  0  0  0  0  0  0
   40.0052   44.7048  -14.0097 O   0  0  0  0  0  0  0  0  0  0  0  0
   37.0948   35.0424  -14.3248 C   0  0  2  0  0  0  0  0  0  0  0  0
   35.9127   34.4685  -14.9166 O   0  0  0  0  0  0  0  0  0  0  0  0
   34.5657   37.0013  -14.0753 C   0  0  2  0  0  0  0  0  0  0  0  0
   35.0001   37.7527  -12.9301 O   0  0  0  0  0  0  0  0  0  0  0  0
   39.0282   37.6661  -11.5503 C   0  0  0  0  0  0  0  0  0  0  0  0
   40.1682   38.3486  -11.0234 O   0  0  0  0  0  0  0  0  0  0  0  0
   40.7717   42.5176  -14.7504 C   0  0  1  0  0  0  0  0  0  0  0  0
   39.4394   42.0006  -14.5853 O   0  0  0  0  0  0  0  0  0  0  0  0
   37.9660   35.6809  -15.4096 C   0  0  0  0  0  0  0  0  0  0  0  0
   39.1153   36.3629  -14.7972 O   0  0  0  0  0  0  0  0  0  0  0  0
   33.7616   37.9033  -15.0192 C   0  0  1  0  0  0  0  0  0  0  0  0
   34.5905   38.9589  -15.5109 O   0  0  0  0  0  0  0  0  0  0  0  0
   40.9620   42.9547  -16.2033 C   0  0  0  0  0  0  0  0  0  0  0  0
   42.3011   43.5390  -16.3613 N   0  0  0  0  0  0  0  0  0  0  0  0
  1  2  1  1  0  0  0
  1  7  1  0  0  0  0
  1 30  1  0  0  0  0
  3  4  1  6  0  0  0
  3  9  1  0  0  0  0
  3 39  1  0  0  0  0
  5 10  1  0  0  0  0
  5 26  1  0  0  0  0
  5 32  1  1  0  0  0
  6 12  1  0  0  0  0
  6 36  1  0  0  0  0
  6 19  1  6  0  0  0
  7  8  1  1  0  0  0
  7 14  1  0  0  0  0
  9 16  1  0  0  0  0
 10 11  1  6  0  0  0
 10 18  1  0  0  0  0
 12 13  1  6  0  0  0
 12 20  1  0  0  0  0
 14 15  1  6  0  0  0
 14 22  1  0  0  0  0
 16 17  1  1  0  0  0
 16 24  1  0  0  0  0
 18 19  1  6  0  0  0
 18 25  1  0  0  0  0
 20 21  1  6  0  0  0
 20 27  1  0  0  0  0
 22 23  1  1  0  0  0
 22 29  1  0  0  0  0
 24  2  1  6  0  0  0
 24 31  1  0  0  0  0
 25 26  1  0  0  0  0
 25 33  1  1  0  0  0
 27 28  1  6  0  0  0
 27 35  1  0  0  0  0
 29 30  1  0  0  0  0
 29 37  1  6  0  0  0
 31 32  1  1  0  0  0
 31 39  1  0  0  0  0
 33 34  1  0  0  0  0
 35 36  1  0  0  0  0
 35 41  1  6  0  0  0
 37 38  1  0  0  0  0
 39 40  1  6  0  0  0
 41 42  1  0  0  0  0
M  END
>  <CHROM.1>
-173.61394002,175.70261761,-78.95046515,168.14479728,33.65198751,-66.26651523
-64.58841503,158.03923263,57.28899595,37.18229191,38.11058178,-13.67533013
-2.20660528,-0.37479066,-0.22707977

>  <Name>
3c44_lig

>  <RI>
0

>  <Rbt.Current_Directory>
/home/itssahil/PROJECTS/Mol_Feturizer/New_Systems/rnas/3c44

>  <Rbt.Executable>
rbdock ($Id: //depot/dev/client3/rdock/2013.1/src/exe/rbdock.cxx#4 $)

>  <Rbt.Library>
libRbt.so (2013.1, Build901 2013/11/27)

>  <Rbt.Parameter_File>
/export/apps/rDock/src/rDock_2013.1_src/data/scripts/dock_solv.prm

>  <Rbt.Receptor>
prm/pocket_docking_2.prm

>  <SCORE>
3.44486

>  <SCORE.INTER>
0.7945

>  <SCORE.INTER.CONST>
1

>  <SCORE.INTER.POLAR>
-0.0877447

>  <SCORE.INTER.ROT>
9

>  <SCORE.INTER.SOLV>
17.2409

>  <SCORE.INTER.VDW>
-14.5248

>  <SCORE.INTER.norm>
0.0189167

>  <SCORE.INTRA>
1.12343

>  <SCORE.INTRA.DIHEDRAL>
-6.57595

>  <SCORE.INTRA.DIHEDRAL.0>
14.8538

>  <SCORE.INTRA.POLAR>
0

>  <SCORE.INTRA.POLAR.0>
0

>  <SCORE.INTRA.REPUL>
0

>  <SCORE.INTRA.REPUL.0>
0

>  <SCORE.INTRA.SOLV>
-1.46707

>  <SCORE.INTRA.SOLV.lig_0>
-100.951

>  <SCORE.INTRA.VDW>
5.14493

>  <SCORE.INTRA.VDW.0>
-5.71388

>  <SCORE.INTRA.norm>
0.0267483

>  <SCORE.RESTR>
1.52694

>  <SCORE.RESTR.CAVITY>
1.52694

>  <SCORE.RESTR.norm>
0.0363556

>  <SCORE.SYSTEM>
0

>  <SCORE.SYSTEM.CONST>
0

>  <SCORE.SYSTEM.DIHEDRAL>
0

>  <SCORE.SYSTEM.SOLV>
0

>  <SCORE.SYSTEM.norm>
0

>  <SCORE.heavy>
42

>  <SCORE.norm>
0.0820205

>  <RMSD>
2.724

$$$$
3c44_lig
 OpenBabel11021811463D
libRbt.so/2013.1/901 2013/11/27
 42 45  0  0  0  0  0  0  0  0999 V2000
   37.2851   35.4834  -12.9721 C   0  0  2  0  0  0  0  0  0  0  0  0
   36.3849   35.2327  -14.0623 O   0  0  0  0  0  0  0  0  0  0  0  0
   32.3629   35.7041  -14.9514 C   0  0  2  0  0  0  0  0  0  0  0  0
   30.9028   35.8490  -15.0560 N   0  0  0  0  0  0  0  0  0  0  0  0
   35.9431   38.7342  -14.0721 C   0  0  1  0  0  0  0  0  0  0  0  0
   37.9045   41.6077  -16.3734 C   0  0  1  0  0  0  0  0  0  0  0  0
   38.7118   35.6033  -13.5180 C   0  0  2  0  0  0  0  0  0  0  0  0
   38.7839   36.6206  -14.5767 N   0  0  0  0  0  0  0  0  0  0  0  0
   32.7261   34.3922  -14.2498 C   0  0  0  0  0  0  0  0  0  0  0  0
   35.1333   39.9517  -14.5205 C   0  0  2  0  0  0  0  0  0  0  0  0
   34.4655   39.6675  -15.7513 O   0  0  0  0  0  0  0  0  0  0  0  0
   38.5643   41.2419  -17.7070 C   0  0  2  0  0  0  0  0  0  0  0  0
   39.1600   39.9051  -17.5758 N   0  0  0  0  0  0  0  0  0  0  0  0
   39.2091   34.2668  -14.0745 C   0  0  1  0  0  0  0  0  0  0  0  0
   40.5913   34.3871  -14.4245 O   0  0  0  0  0  0  0  0  0  0  0  0
   34.2489   34.2342  -14.3154 C   0  0  2  0  0  0  0  0  0  0  0  0
   34.6426   33.0131  -13.5965 N   0  0  0  0  0  0  0  0  0  0  0  0
   36.2726   40.9317  -14.7933 C   0  0  2  0  0  0  0  0  0  0  0  0
   36.9767   40.5758  -15.9944 O   0  0  0  0  0  0  0  0  0  0  0  0
   39.6683   42.2430  -18.0717 C   0  0  1  0  0  0  0  0  0  0  0  0
   39.0991   43.5041  -18.4329 O   0  0  0  0  0  0  0  0  0  0  0  0
   39.0423   33.1711  -13.0201 C   0  0  2  0  0  0  0  0  0  0  0  0
   39.4045   31.9062  -13.5802 O   0  0  0  0  0  0  0  0  0  0  0  0
   35.0028   35.4272  -13.7146 C   0  0  2  0  0  0  0  0  0  0  0  0
   37.1597   40.6683  -13.5868 C   0  0  2  0  0  0  0  0  0  0  0  0
   36.9504   39.2908  -13.2072 O   0  0  0  0  0  0  0  0  0  0  0  0
   40.6276   42.4545  -16.8992 C   0  0  2  0  0  0  0  0  0  0  0  0
   41.3621   41.2469  -16.6795 O   0  0  0  0  0  0  0  0  0  0  0  0
   37.5871   33.1291  -12.5512 C   0  0  2  0  0  0  0  0  0  0  0  0
   37.2000   34.4101  -12.0160 O   0  0  0  0  0  0  0  0  0  0  0  0
   34.5145   36.7889  -14.2044 C   0  0  2  0  0  0  0  0  0  0  0  0
   35.0757   37.8212  -13.3773 O   0  0  0  0  0  0  0  0  0  0  0  0
   36.7703   41.6168  -12.4509 C   0  0  0  0  0  0  0  0  0  0  0  0
   36.9301   42.9665  -12.8934 O   0  0  0  0  0  0  0  0  0  0  0  0
   39.8174   42.8219  -15.6532 C   0  0  1  0  0  0  0  0  0  0  0  0
   38.9158   41.7396  -15.3617 O   0  0  0  0  0  0  0  0  0  0  0  0
   37.4799   32.0546  -11.4661 C   0  0  0  0  0  0  0  0  0  0  0  0
   36.5471   32.4891  -10.4163 O   0  0  0  0  0  0  0  0  0  0  0  0
   32.9835   36.8663  -14.1721 C   0  0  1  0  0  0  0  0  0  0  0  0
   32.5454   38.1129  -14.7171 O   0  0  0  0  0  0  0  0  0  0  0  0
   40.7088   43.0717  -14.4360 C   0  0  0  0  0  0  0  0  0  0  0  0
   41.4135   44.3500  -14.6067 N   0  0  0  0  0  0  0  0  0  0  0  0
  1  2  1  6  0  0  0
  1  7  1  0  0  0  0
  1 30  1  0  0  0  0
  3  4  1  1  0  0  0
  3  9  1  0  0  0  0
  3 39  1  0  0  0  0
  5 10  1  0  0  0  0
  5 26  1  0  0  0  0
  5 32  1  1  0  0  0
  6 12  1  0  0  0  0
  6 36  1  0  0  0  0
  6 19  1  1  0  0  0
  7  8  1  6  0  0  0
  7 14  1  0  0  0  0
  9 16  1  0  0  0  0
 10 11  1  6  0  0  0
 10 18  1  0  0  0  0
 12 13  1  1  0  0  0
 12 20  1  0  0  0  0
 14 15  1  1  0  0  0
 14 22  1  0  0  0  0
 16 17  1  1  0  0  0
 16 24  1  0  0  0  0
 18 19  1  6  0  0  0
 18 25  1  0  0  0  0
 20 21  1  1  0  0  0
 20 27  1  0  0  0  0
 22 23  1  6  0  0  0
 22 29  1  0  0  0  0
 24  2  1  6  0  0  0
 24 31  1  0  0  0  0
 25 26  1  0  0  0  0
 25 33  1  1  0  0  0
 27 28  1  1  0  0  0
 27 35  1  0  0  0  0
 29 30  1  0  0  0  0
 29 37  1  1  0  0  0
 31 32  1  1  0  0  0
 31 39  1  0  0  0  0
 33 34  1  0  0  0  0
 35 36  1  0  0  0  0
 35 41  1  1  0  0  0
 37 38  1  0  0  0  0
 39 40  1  6  0  0  0
 41 42  1  0  0  0  0
M  END
>  <CHROM.1>
-165.64463702,94.06044910,-176.03441355,170.66765708,-135.80251790,-59.44488413
142.54331367,117.08078621,72.40693103,37.08851451,37.99511131,-14.46568439
-1.92204080,0.00570824,-0.31840118

>  <Name>
3c44_lig

>  <RI>
0

>  <Rbt.Current_Directory>
/home/itssahil/PROJECTS/Mol_Feturizer/New_Systems/rnas/3c44

>  <Rbt.Executable>
rbdock ($Id: //depot/dev/client3/rdock/2013.1/src/exe/rbdock.cxx#4 $)

>  <Rbt.Library>
libRbt.so (2013.1, Build901 2013/11/27)

>  <Rbt.Parameter_File>
/export/apps/rDock/src/rDock_2013.1_src/data/scripts/dock_solv.prm

>  <Rbt.Receptor>
prm/pocket_docking_7.prm

>  <SCORE>
-18.3496

>  <SCORE.INTER>
-23.0003

>  <SCORE.INTER.CONST>
1

>  <SCORE.INTER.POLAR>
-2.26124

>  <SCORE.INTER.ROT>
9

>  <SCORE.INTER.SOLV>
16.9433

>  <SCORE.INTER.VDW>
-23.0438

>  <SCORE.INTER.norm>
-0.547626

>  <SCORE.INTRA>
4.65067

>  <SCORE.INTRA.DIHEDRAL>
8.57753

>  <SCORE.INTRA.DIHEDRAL.0>
14.8538

>  <SCORE.INTRA.POLAR>
0

>  <SCORE.INTRA.POLAR.0>
0

>  <SCORE.INTRA.REPUL>
0.0200654

>  <SCORE.INTRA.REPUL.0>
0

>  <SCORE.INTRA.SOLV>
-0.714333

>  <SCORE.INTRA.SOLV.lig_0>
-100.951

>  <SCORE.INTRA.VDW>
0.618748

>  <SCORE.INTRA.VDW.0>
-5.71388

>  <SCORE.INTRA.norm>
0.11073

>  <SCORE.RESTR>
0

>  <SCORE.RESTR.CAVITY>
0

>  <SCORE.RESTR.norm>
0

>  <SCORE.SYSTEM>
0

>  <SCORE.SYSTEM.CONST>
0

>  <SCORE.SYSTEM.DIHEDRAL>
0

>  <SCORE.SYSTEM.SOLV>
0

>  <SCORE.SYSTEM.norm>
0

>  <SCORE.heavy>
42

>  <SCORE.norm>
-0.436896

>  <RMSD>
2.794

$$$$
3c44_lig
 OpenBabel11021811463D
libRbt.so/2013.1/901 2013/11/27
 42 45  0  0  0  0  0  0  0  0999 V2000
   35.2008   34.0341  -13.8390 C   0  0  2  0  0  0  0  0  0  0  0  0
   34.8774   34.9701  -12.7992 O   0  0  0  0  0  0  0  0  0  0  0  0
   33.8852   37.6939  -15.7633 C   0  0  2  0  0  0  0  0  0  0  0  0
   33.4038   38.7489  -16.6683 N   0  0  0  0  0  0  0  0  0  0  0  0
   37.1434   38.5169  -12.9216 C   0  0  1  0  0  0  0  0  0  0  0  0
   38.4635   42.0928  -13.2597 C   0  0  1  0  0  0  0  0  0  0  0  0
   35.8071   32.7756  -13.2093 C   0  0  2  0  0  0  0  0  0  0  0  0
   34.9120   32.2193  -12.1844 N   0  0  0  0  0  0  0  0  0  0  0  0
   32.7100   36.8959  -15.1912 C   0  0  0  0  0  0  0  0  0  0  0  0
   37.2737   39.6482  -11.9006 C   0  0  2  0  0  0  0  0  0  0  0  0
   36.4463   40.7486  -12.2830 O   0  0  0  0  0  0  0  0  0  0  0  0
   38.6260   42.7968  -14.6109 C   0  0  2  0  0  0  0  0  0  0  0  0
   40.0179   42.6330  -15.0522 N   0  0  0  0  0  0  0  0  0  0  0  0
   37.1691   33.0707  -12.5762 C   0  0  1  0  0  0  0  0  0  0  0  0
   37.7642   31.8431  -12.1448 O   0  0  0  0  0  0  0  0  0  0  0  0
   33.2876   35.7255  -14.3884 C   0  0  2  0  0  0  0  0  0  0  0  0
   32.1877   34.9692  -13.7711 N   0  0  0  0  0  0  0  0  0  0  0  0
   38.7355   40.0299  -12.1252 C   0  0  2  0  0  0  0  0  0  0  0  0
   38.8965   40.7258  -13.3722 O   0  0  0  0  0  0  0  0  0  0  0  0
   38.3155   44.2950  -14.4956 C   0  0  1  0  0  0  0  0  0  0  0  0
   36.9148   44.5004  -14.2941 O   0  0  0  0  0  0  0  0  0  0  0  0
   38.0814   33.7488  -13.6001 C   0  0  2  0  0  0  0  0  0  0  0  0
   39.3120   34.1218  -12.9744 O   0  0  0  0  0  0  0  0  0  0  0  0
   34.2591   36.1728  -13.2890 C   0  0  2  0  0  0  0  0  0  0  0  0
   39.3694   38.6516  -12.2264 C   0  0  2  0  0  0  0  0  0  0  0  0
   38.3612   37.7662  -12.7601 O   0  0  0  0  0  0  0  0  0  0  0  0
   39.0776   44.9260  -13.3291 C   0  0  2  0  0  0  0  0  0  0  0  0
   40.4753   44.9199  -13.6330 O   0  0  0  0  0  0  0  0  0  0  0  0
   37.3891   34.9935  -14.1575 C   0  0  2  0  0  0  0  0  0  0  0  0
   36.1302   34.6343  -14.7603 O   0  0  0  0  0  0  0  0  0  0  0  0
   35.3196   37.1677  -13.7558 C   0  0  2  0  0  0  0  0  0  0  0  0
   35.9779   37.7336  -12.6108 O   0  0  0  0  0  0  0  0  0  0  0  0
   39.8223   38.1955  -10.8377 C   0  0  0  0  0  0  0  0  0  0  0  0
   40.5308   36.9601  -10.9595 O   0  0  0  0  0  0  0  0  0  0  0  0
   38.8029   44.1166  -12.0590 C   0  0  1  0  0  0  0  0  0  0  0  0
   39.2578   42.7685  -12.2717 O   0  0  0  0  0  0  0  0  0  0  0  0
   38.3162   35.6088  -15.2089 C   0  0  0  0  0  0  0  0  0  0  0  0
   39.5161   36.1600  -14.5628 O   0  0  0  0  0  0  0  0  0  0  0  0
   34.6918   38.2814  -14.6024 C   0  0  1  0  0  0  0  0  0  0  0  0
   35.7113   39.1496  -15.1021 O   0  0  0  0  0  0  0  0  0  0  0  0
   39.5151   44.6977  -10.8369 C   0  0  0  0  0  0  0  0  0  0  0  0
   38.8922   45.9794  -10.4781 N   0  0  0  0  0  0  0  0  0  0  0  0
  1  2  1  1  0  0  0
  1  7  1  0  0  0  0
  1 30  1  0  0  0  0
  3  4  1  6  0  0  0
  3  9  1  0  0  0  0
  3 39  1  0  0  0  0
  5 10  1  0  0  0  0
  5 26  1  0  0  0  0
  5 32  1  1  0  0  0
  6 12  1  0  0  0  0
  6 36  1  0  0  0  0
  6 19  1  6  0  0  0
  7  8  1  1  0  0  0
  7 14  1  0  0  0  0
  9 16  1  0  0  0  0
 10 11  1  6  0  0  0
 10 18  1  0  0  0  0
 12 13  1  1  0  0  0
 12 20  1  0  0  0  0
 14 15  1  6  0  0  0
 14 22  1  0  0  0  0
 16 17  1  1  0  0  0
 16 24  1  0  0  0  0
 18 19  1  6  0  0  0
 18 25  1  0  0  0  0
 20 21  1  1  0  0  0
 20 27  1  0  0  0  0
 22 23  1  1  0  0  0
 22 29  1  0  0  0  0
 24  2  1  6  0  0  0
 24 31  1  0  0  0  0
 25 26  1  0  0  0  0
 25 33  1  1  0  0  0
 27 28  1  6  0  0  0
 27 35  1  0  0  0  0
 29 30  1  0  0  0  0
 29 37  1  6  0  0  0
 31 32  1  1  0  0  0
 31 39  1  0  0  0  0
 33 34  1  0  0  0  0
 35 36  1  0  0  0  0
 35 41  1  1  0  0  0
 37 38  1  0  0  0  0
 39 40  1  6  0  0  0
 41 42  1  0  0  0  0
M  END
>  <CHROM.1>
-178.08400791,147.66061452,-179.01981788,77.44197527,40.27545936,-174.47363100
-68.46393147,170.21542862,69.42443911,37.20467427,38.46718278,-13.34186618
1.92716180,0.44429461,3.05435086

>  <Name>
3c44_lig

>  <RI>
0

>  <Rbt.Current_Directory>
/home/itssahil/PROJECTS/Mol_Feturizer/New_Systems/rnas/3c44

>  <Rbt.Executable>
rbdock ($Id: //depot/dev/client3/rdock/2013.1/src/exe/rbdock.cxx#4 $)

>  <Rbt.Library>
libRbt.so (2013.1, Build901 2013/11/27)

>  <Rbt.Parameter_File>
/export/apps/rDock/src/rDock_2013.1_src/data/scripts/dock_solv.prm

>  <Rbt.Receptor>
prm/pocket_docking_2.prm

>  <SCORE>
0.405212

>  <SCORE.INTER>
-3.90915

>  <SCORE.INTER.CONST>
1

>  <SCORE.INTER.POLAR>
-0.905703

>  <SCORE.INTER.ROT>
9

>  <SCORE.INTER.SOLV>
22.8308

>  <SCORE.INTER.VDW>
-16.7974

>  <SCORE.INTER.norm>
-0.0930749

>  <SCORE.INTRA>
1.55392

>  <SCORE.INTRA.DIHEDRAL>
-6.25679

>  <SCORE.INTRA.DIHEDRAL.0>
14.8538

>  <SCORE.INTRA.POLAR>
0

>  <SCORE.INTRA.POLAR.0>
0

>  <SCORE.INTRA.REPUL>
0.0491968

>  <SCORE.INTRA.REPUL.0>
0

>  <SCORE.INTRA.SOLV>
-2.24689

>  <SCORE.INTRA.SOLV.lig_0>
-100.951

>  <SCORE.INTRA.VDW>
5.55977

>  <SCORE.INTRA.VDW.0>
-5.71388

>  <SCORE.INTRA.norm>
0.0369981

>  <SCORE.RESTR>
2.76044

>  <SCORE.RESTR.CAVITY>
2.76044

>  <SCORE.RESTR.norm>
0.0657247

>  <SCORE.SYSTEM>
0

>  <SCORE.SYSTEM.CONST>
0

>  <SCORE.SYSTEM.DIHEDRAL>
0

>  <SCORE.SYSTEM.SOLV>
0

>  <SCORE.SYSTEM.norm>
0

>  <SCORE.heavy>
42

>  <SCORE.norm>
0.0096479

>  <RMSD>
2.871

$$$$
3c44_lig
 OpenBabel11021811463D
libRbt.so/2013.1/901 2013/11/27
 42 45  0  0  0  0  0  0  0  0999 V2000
   38.5611   35.5944  -13.6337 C   0  0  2  0  0  0  0  0  0  0  0  0
   37.6889   35.5493  -14.7734 O   0  0  0  0  0  0  0  0  0  0  0  0
   33.8859   37.1503  -15.1775 C   0  0  2  0  0  0  0  0  0  0  0  0
   32.4734   37.5610  -15.1892 N   0  0  0  0  0  0  0  0  0  0  0  0
   37.1910   38.3348  -12.1582 C   0  0  1  0  0  0  0  0  0  0  0  0
   38.8243   41.8179  -10.4890 C   0  0  1  0  0  0  0  0  0  0  0  0
   39.9948   35.3016  -14.0883 C   0  0  2  0  0  0  0  0  0  0  0  0
   40.3996   36.2155  -15.1662 N   0  0  0  0  0  0  0  0  0  0  0  0
   34.0257   35.6863  -15.6044 C   0  0  0  0  0  0  0  0  0  0  0  0
   37.5420   38.3352  -10.6697 C   0  0  2  0  0  0  0  0  0  0  0  0
   36.4044   38.7288   -9.8999 O   0  0  0  0  0  0  0  0  0  0  0  0
   38.7538   42.1190   -8.9883 C   0  0  2  0  0  0  0  0  0  0  0  0
   37.3506   42.3733   -8.6341 N   0  0  0  0  0  0  0  0  0  0  0  0
   40.1403   33.8580  -14.5761 C   0  0  1  0  0  0  0  0  0  0  0  0
   41.5204   33.5860  -14.8381 O   0  0  0  0  0  0  0  0  0  0  0  0
   35.5216   35.3749  -15.7201 C   0  0  2  0  0  0  0  0  0  0  0  0
   35.6977   33.9572  -16.0696 N   0  0  0  0  0  0  0  0  0  0  0  0
   38.5670   39.4673  -10.6476 C   0  0  2  0  0  0  0  0  0  0  0  0
   37.9242   40.7425  -10.8087 O   0  0  0  0  0  0  0  0  0  0  0  0
   39.5873   43.3570   -8.6321 C   0  0  1  0  0  0  0  0  0  0  0  0
   40.9833   43.0684   -8.7453 O   0  0  0  0  0  0  0  0  0  0  0  0
   39.6234   32.8941  -13.5065 C   0  0  2  0  0  0  0  0  0  0  0  0
   39.6588   31.5556  -14.0086 O   0  0  0  0  0  0  0  0  0  0  0  0
   36.2972   35.6667  -14.4294 C   0  0  2  0  0  0  0  0  0  0  0  0
   39.3682   39.1402  -11.8978 C   0  0  2  0  0  0  0  0  0  0  0  0
   38.4653   38.4809  -12.8119 O   0  0  0  0  0  0  0  0  0  0  0  0
   39.2514   44.5297   -9.5549 C   0  0  2  0  0  0  0  0  0  0  0  0
   37.9160   44.9642   -9.2827 O   0  0  0  0  0  0  0  0  0  0  0  0
   38.1878   33.2662  -13.1326 C   0  0  2  0  0  0  0  0  0  0  0  0
   38.1343   34.6259  -12.6576 O   0  0  0  0  0  0  0  0  0  0  0  0
   36.0102   37.0381  -13.8215 C   0  0  2  0  0  0  0  0  0  0  0  0
   36.5500   37.0910  -12.4909 O   0  0  0  0  0  0  0  0  0  0  0  0
   40.5398   38.2278  -11.5284 C   0  0  0  0  0  0  0  0  0  0  0  0
   41.3566   38.0249  -12.6836 O   0  0  0  0  0  0  0  0  0  0  0  0
   39.3783   44.0705  -11.0099 C   0  0  1  0  0  0  0  0  0  0  0  0
   38.4520   42.9918  -11.2286 O   0  0  0  0  0  0  0  0  0  0  0  0
   37.7322   32.3080  -12.0292 C   0  0  0  0  0  0  0  0  0  0  0  0
   37.5727   30.9516  -12.5730 O   0  0  0  0  0  0  0  0  0  0  0  0
   34.5030   37.3177  -13.7867 C   0  0  1  0  0  0  0  0  0  0  0  0
   34.2620   38.6391  -13.2980 O   0  0  0  0  0  0  0  0  0  0  0  0
   39.0780   45.1961  -12.0005 C   0  0  0  0  0  0  0  0  0  0  0  0
   39.3048   44.7098  -13.3685 N   0  0  0  0  0  0  0  0  0  0  0  0
  1  2  1  6  0  0  0
  1  7  1  0  0  0  0
  1 30  1  0  0  0  0
  3  4  1  1  0  0  0
  3  9  1  0  0  0  0
  3 39  1  0  0  0  0
  5 10  1  0  0  0  0
  5 26  1  0  0  0  0
  5 32  1  6  0  0  0
  6 12  1  0  0  0  0
  6 36  1  0  0  0  0
  6 19  1  1  0  0  0
  7  8  1  6  0  0  0
  7 14  1  0  0  0  0
  9 16  1  0  0  0  0
 10 11  1  1  0  0  0
 10 18  1  0  0  0  0
 12 13  1  6  0  0  0
 12 20  1  0  0  0  0
 14 15  1  1  0  0  0
 14 22  1  0  0  0  0
 16 17  1  1  0  0  0
 16 24  1  0  0  0  0
 18 19  1  6  0  0  0
 18 25  1  0  0  0  0
 20 21  1  6  0  0  0
 20 27  1  0  0  0  0
 22 23  1  6  0  0  0
 22 29  1  0  0  0  0
 24  2  1  6  0  0  0
 24 31  1  0  0  0  0
 25 26  1  0  0  0  0
 25 33  1  1  0  0  0
 27 28  1  1  0  0  0
 27 35  1  0  0  0  0
 29 30  1  0  0  0  0
 29 37  1  1  0  0  0
 31 32  1  1  0  0  0
 31 39  1  0  0  0  0
 33 34  1  0  0  0  0
 35 36  1  0  0  0  0
 35 41  1  6  0  0  0
 37 38  1  0  0  0  0
 39 40  1  6  0  0  0
 41 42  1  0  0  0  0
M  END
>  <CHROM.1>
173.56870362,172.08408378,-87.70292114,166.92286544,-171.18655016,-174.74013500
-69.24751480,138.95057807,176.29424635,37.98666496,38.07631088,-12.50061414
-1.69439562,-0.34068161,0.35977959

>  <Name>
3c44_lig

>  <RI>
0

>  <Rbt.Current_Directory>
/home/itssahil/PROJECTS/Mol_Feturizer/New_Systems/rnas/3c44

>  <Rbt.Executable>
rbdock ($Id: //depot/dev/client3/rdock/2013.1/src/exe/rbdock.cxx#4 $)

>  <Rbt.Library>
libRbt.so (2013.1, Build901 2013/11/27)

>  <Rbt.Parameter_File>
/export/apps/rDock/src/rDock_2013.1_src/data/scripts/dock_solv.prm

>  <Rbt.Receptor>
prm/pocket_docking_5.prm

>  <SCORE>
-16.4989

>  <SCORE.INTER>
-14.2974

>  <SCORE.INTER.CONST>
1

>  <SCORE.INTER.POLAR>
-0.85543

>  <SCORE.INTER.ROT>
9

>  <SCORE.INTER.SOLV>
15.25

>  <SCORE.INTER.VDW>
-21.3635

>  <SCORE.INTER.norm>
-0.340415

>  <SCORE.INTRA>
-2.20146

>  <SCORE.INTRA.DIHEDRAL>
-3.5729

>  <SCORE.INTRA.DIHEDRAL.0>
14.8538

>  <SCORE.INTRA.POLAR>
0

>  <SCORE.INTRA.POLAR.0>
0

>  <SCORE.INTRA.REPUL>
0

>  <SCORE.INTRA.REPUL.0>
0

>  <SCORE.INTRA.SOLV>
-3.21554

>  <SCORE.INTRA.SOLV.lig_0>
-100.951

>  <SCORE.INTRA.VDW>
1.19276

>  <SCORE.INTRA.VDW.0>
-5.71388

>  <SCORE.INTRA.norm>
-0.0524156

>  <SCORE.RESTR>
0

>  <SCORE.RESTR.CAVITY>
0

>  <SCORE.RESTR.norm>
0

>  <SCORE.SYSTEM>
0

>  <SCORE.SYSTEM.CONST>
0

>  <SCORE.SYSTEM.DIHEDRAL>
0

>  <SCORE.SYSTEM.SOLV>
0

>  <SCORE.SYSTEM.norm>
0

>  <SCORE.heavy>
42

>  <SCORE.norm>
-0.392831

>  <RMSD>
2.875

$$$$
3c44_lig
 OpenBabel11021811463D
libRbt.so/2013.1/901 2013/11/27
 42 45  0  0  0  0  0  0  0  0999 V2000
   36.6061   35.8784  -12.3806 C   0  0  2  0  0  0  0  0  0  0  0  0
   36.0726   36.1755  -13.6802 O   0  0  0  0  0  0  0  0  0  0  0  0
   32.4337   36.1724  -15.6671 C   0  0  2  0  0  0  0  0  0  0  0  0
   31.0594   36.1017  -16.1869 N   0  0  0  0  0  0  0  0  0  0  0  0
   35.1823   39.2850  -13.1556 C   0  0  1  0  0  0  0  0  0  0  0  0
   37.8549   42.4120  -14.0180 C   0  0  1  0  0  0  0  0  0  0  0  0
   37.9962   36.5104  -12.2534 C   0  0  2  0  0  0  0  0  0  0  0  0
   37.9458   37.9502  -12.5455 N   0  0  0  0  0  0  0  0  0  0  0  0
   32.8626   34.8203  -15.0899 C   0  0  0  0  0  0  0  0  0  0  0  0
   34.6321   40.5940  -13.7240 C   0  0  2  0  0  0  0  0  0  0  0  0
   34.5730   40.5205  -15.1498 O   0  0  0  0  0  0  0  0  0  0  0  0
   38.9190   42.3070  -15.1155 C   0  0  2  0  0  0  0  0  0  0  0  0
   39.5305   40.9730  -15.0394 N   0  0  0  0  0  0  0  0  0  0  0  0
   38.9994   35.8437  -13.1980 C   0  0  1  0  0  0  0  0  0  0  0  0
   40.3090   36.3550  -12.9317 O   0  0  0  0  0  0  0  0  0  0  0  0
   34.3444   34.9227  -14.7133 C   0  0  2  0  0  0  0  0  0  0  0  0
   34.7781   33.6597  -14.0973 N   0  0  0  0  0  0  0  0  0  0  0  0
   35.7619   41.5418  -13.3263 C   0  0  2  0  0  0  0  0  0  0  0  0
   36.9249   41.3216  -14.1412 O   0  0  0  0  0  0  0  0  0  0  0  0
   40.0137   43.3656  -14.9285 C   0  0  1  0  0  0  0  0  0  0  0  0
   39.5038   44.6686  -15.2239 O   0  0  0  0  0  0  0  0  0  0  0  0
   38.9884   34.3292  -12.9820 C   0  0  2  0  0  0  0  0  0  0  0  0
   39.8442   33.7011  -13.9401 O   0  0  0  0  0  0  0  0  0  0  0  0
   34.6392   36.0736  -13.7432 C   0  0  2  0  0  0  0  0  0  0  0  0
   36.0367   41.0659  -11.9086 C   0  0  2  0  0  0  0  0  0  0  0  0
   35.7026   39.6616  -11.8672 O   0  0  0  0  0  0  0  0  0  0  0  0
   40.5451   43.3593  -13.4942 C   0  0  2  0  0  0  0  0  0  0  0  0
   41.2523   42.1365  -13.2688 O   0  0  0  0  0  0  0  0  0  0  0  0
   37.5622   33.7999  -13.1402 C   0  0  2  0  0  0  0  0  0  0  0  0
   36.6831   34.4517  -12.2024 O   0  0  0  0  0  0  0  0  0  0  0  0
   34.0252   37.4111  -14.1515 C   0  0  2  0  0  0  0  0  0  0  0  0
   34.1118   38.3302  -13.0505 O   0  0  0  0  0  0  0  0  0  0  0  0
   35.1767   41.8648  -10.9269 C   0  0  0  0  0  0  0  0  0  0  0  0
   35.6094   41.5870   -9.5932 O   0  0  0  0  0  0  0  0  0  0  0  0
   39.3656   43.4813  -12.5258 C   0  0  1  0  0  0  0  0  0  0  0  0
   38.4908   42.3579  -12.7311 O   0  0  0  0  0  0  0  0  0  0  0  0
   37.5932   32.2937  -12.8687 C   0  0  0  0  0  0  0  0  0  0  0  0
   36.2230   31.7666  -12.7919 O   0  0  0  0  0  0  0  0  0  0  0  0
   32.5616   37.2362  -14.5739 C   0  0  1  0  0  0  0  0  0  0  0  0
   32.0339   38.4816  -15.0360 O   0  0  0  0  0  0  0  0  0  0  0  0
   39.8162   43.5038  -11.0647 C   0  0  0  0  0  0  0  0  0  0  0  0
   38.6497   43.7385  -10.2023 N   0  0  0  0  0  0  0  0  0  0  0  0
  1  2  1  6  0  0  0
  1  7  1  0  0  0  0
  1 30  1  0  0  0  0
  3  4  1  1  0  0  0
  3  9  1  0  0  0  0
  3 39  1  0  0  0  0
  5 10  1  0  0  0  0
  5 26  1  0  0  0  0
  5 32  1  1  0  0  0
  6 12  1  0  0  0  0
  6 36  1  0  0  0  0
  6 19  1  1  0  0  0
  7  8  1  6  0  0  0
  7 14  1  0  0  0  0
  9 16  1  0  0  0  0
 10 11  1  6  0  0  0
 10 18  1  0  0  0  0
 12 13  1  1  0  0  0
 12 20  1  0  0  0  0
 14 15  1  1  0  0  0
 14 22  1  0  0  0  0
 16 17  1  1  0  0  0
 16 24  1  0  0  0  0
 18 19  1  6  0  0  0
 18 25  1  0  0  0  0
 20 21  1  1  0  0  0
 20 27  1  0  0  0  0
 22 23  1  6  0  0  0
 22 29  1  0  0  0  0
 24  2  1  6  0  0  0
 24 31  1  0  0  0  0
 25 26  1  0  0  0  0
 25 33  1  1  0  0  0
 27 28  1  1  0  0  0
 27 35  1  0  0  0  0
 29 30  1  0  0  0  0
 29 37  1  1  0  0  0
 31 32  1  1  0  0  0
 31 39  1  0  0  0  0
 33 34  1  0  0  0  0
 35 36  1  0  0  0  0
 35 41  1  1  0  0  0
 37 38  1  0  0  0  0
 39 40  1  6  0  0  0
 41 42  1  0  0  0  0
M  END
>  <CHROM.1>
-158.50116503,97.04679819,-167.44424942,165.17188085,-115.52667153,-169.66284999
170.88168341,101.05793113,175.15075468,36.70877193,38.61903927,-13.38194960
-1.97295246,-0.21168536,0.01025015

>  <Name>
3c44_lig

>  <RI>
0

>  <Rbt.Current_Directory>
/home/itssahil/PROJECTS/Mol_Feturizer/New_Systems/rnas/3c44

>  <Rbt.Executable>
rbdock ($Id: //depot/dev/client3/rdock/2013.1/src/exe/rbdock.cxx#4 $)

>  <Rbt.Library>
libRbt.so (2013.1, Build901 2013/11/27)

>  <Rbt.Parameter_File>
/export/apps/rDock/src/rDock_2013.1_src/data/scripts/dock_solv.prm

>  <Rbt.Receptor>
prm/pocket_docking_4.prm

>  <SCORE>
-17.8004

>  <SCORE.INTER>
-22.4595

>  <SCORE.INTER.CONST>
1

>  <SCORE.INTER.POLAR>
-2.22381

>  <SCORE.INTER.ROT>
9

>  <SCORE.INTER.SOLV>
12.944

>  <SCORE.INTER.VDW>
-21.4749

>  <SCORE.INTER.norm>
-0.53475

>  <SCORE.INTRA>
4.65913

>  <SCORE.INTRA.DIHEDRAL>
7.44117

>  <SCORE.INTRA.DIHEDRAL.0>
14.8538

>  <SCORE.INTRA.POLAR>
0

>  <SCORE.INTRA.POLAR.0>
0

>  <SCORE.INTRA.REPUL>
0.0198555

>  <SCORE.INTRA.REPUL.0>
0

>  <SCORE.INTRA.SOLV>
2.60696

>  <SCORE.INTRA.SOLV.lig_0>
-100.951

>  <SCORE.INTRA.VDW>
-0.464217

>  <SCORE.INTRA.VDW.0>
-5.71388

>  <SCORE.INTRA.norm>
0.110932

>  <SCORE.RESTR>
0

>  <SCORE.RESTR.CAVITY>
0

>  <SCORE.RESTR.norm>
0

>  <SCORE.SYSTEM>
0

>  <SCORE.SYSTEM.CONST>
0

>  <SCORE.SYSTEM.DIHEDRAL>
0

>  <SCORE.SYSTEM.SOLV>
0

>  <SCORE.SYSTEM.norm>
0

>  <SCORE.heavy>
42

>  <SCORE.norm>
-0.423818

>  <RMSD>
2.909

$$$$
3c44_lig
 OpenBabel11021811463D
libRbt.so/2013.1/901 2013/11/27
 42 45  0  0  0  0  0  0  0  0999 V2000
   36.6432   36.2562  -12.5945 C   0  0  2  0  0  0  0  0  0  0  0  0
   36.0848   36.2581  -13.9174 O   0  0  0  0  0  0  0  0  0  0  0  0
   32.3782   36.2036  -15.7742 C   0  0  2  0  0  0  0  0  0  0  0  0
   30.9875   36.1131  -16.2450 N   0  0  0  0  0  0  0  0  0  0  0  0
   35.3256   39.1590  -13.2086 C   0  0  1  0  0  0  0  0  0  0  0  0
   38.6091   41.5901  -13.5315 C   0  0  1  0  0  0  0  0  0  0  0  0
   38.1026   36.7175  -12.6663 C   0  0  2  0  0  0  0  0  0  0  0  0
   38.2079   38.0200  -13.3396 N   0  0  0  0  0  0  0  0  0  0  0  0
   32.8475   34.8571  -15.2157 C   0  0  0  0  0  0  0  0  0  0  0  0
   35.0568   40.5091  -13.8751 C   0  0  2  0  0  0  0  0  0  0  0  0
   35.1581   40.3815  -15.2947 O   0  0  0  0  0  0  0  0  0  0  0  0
   39.7929   41.3901  -14.4835 C   0  0  2  0  0  0  0  0  0  0  0  0
   40.0139   39.9468  -14.6482 N   0  0  0  0  0  0  0  0  0  0  0  0
   38.9723   35.6996  -13.4083 C   0  0  1  0  0  0  0  0  0  0  0  0
   40.3446   36.0933  -13.3121 O   0  0  0  0  0  0  0  0  0  0  0  0
   34.3400   34.9812  -14.8916 C   0  0  2  0  0  0  0  0  0  0  0  0
   34.8142   33.7237  -14.2942 N   0  0  0  0  0  0  0  0  0  0  0  0
   36.2638   41.2930  -13.3638 C   0  0  2  0  0  0  0  0  0  0  0  0
   37.4678   40.8640  -14.0208 O   0  0  0  0  0  0  0  0  0  0  0  0
   41.0704   42.0261  -13.9198 C   0  0  1  0  0  0  0  0  0  0  0  0
   40.9781   43.4525  -13.9612 O   0  0  0  0  0  0  0  0  0  0  0  0
   38.7936   34.3132  -12.7869 C   0  0  2  0  0  0  0  0  0  0  0  0
   39.5210   33.3472  -13.5502 O   0  0  0  0  0  0  0  0  0  0  0  0
   34.6518   36.1346  -13.9299 C   0  0  2  0  0  0  0  0  0  0  0  0
   36.2900   40.8451  -11.9110 C   0  0  2  0  0  0  0  0  0  0  0  0
   35.7400   39.5103  -11.8754 O   0  0  0  0  0  0  0  0  0  0  0  0
   41.3088   41.5907  -12.4730 C   0  0  2  0  0  0  0  0  0  0  0  0
   41.6218   40.1951  -12.4560 O   0  0  0  0  0  0  0  0  0  0  0  0
   37.3089   33.9462  -12.7725 C   0  0  2  0  0  0  0  0  0  0  0  0
   36.5601   34.9323  -12.0347 O   0  0  0  0  0  0  0  0  0  0  0  0
   34.0037   37.4634  -14.3131 C   0  0  2  0  0  0  0  0  0  0  0  0
   34.1155   38.3818  -13.2136 O   0  0  0  0  0  0  0  0  0  0  0  0
   35.4528   41.8074  -11.0656 C   0  0  0  0  0  0  0  0  0  0  0  0
   35.6276   41.4885   -9.6834 O   0  0  0  0  0  0  0  0  0  0  0  0
   40.0437   41.8651  -11.6557 C   0  0  1  0  0  0  0  0  0  0  0  0
   38.9614   41.1076  -12.2251 O   0  0  0  0  0  0  0  0  0  0  0  0
   37.1755   32.5773  -12.1005 C   0  0  0  0  0  0  0  0  0  0  0  0
   35.7858   32.1060  -12.1870 O   0  0  0  0  0  0  0  0  0  0  0  0
   32.5288   37.2673  -14.6837 C   0  0  1  0  0  0  0  0  0  0  0  0
   31.9664   38.5054  -15.1239 O   0  0  0  0  0  0  0  0  0  0  0  0
   40.2080   41.4753  -10.1861 C   0  0  0  0  0  0  0  0  0  0  0  0
   40.2490   40.0105  -10.0758 N   0  0  0  0  0  0  0  0  0  0  0  0
  1  2  1  6  0  0  0
  1  7  1  0  0  0  0
  1 30  1  0  0  0  0
  3  4  1  1  0  0  0
  3  9  1  0  0  0  0
  3 39  1  0  0  0  0
  5 10  1  0  0  0  0
  5 26  1  0  0  0  0
  5 32  1  1  0  0  0
  6 12  1  0  0  0  0
  6 36  1  0  0  0  0
  6 19  1  6  0  0  0
  7  8  1  6  0  0  0
  7 14  1  0  0  0  0
  9 16  1  0  0  0  0
 10 11  1  6  0  0  0
 10 18  1  0  0  0  0
 12 13  1  1  0  0  0
 12 20  1  0  0  0  0
 14 15  1  1  0  0  0
 14 22  1  0  0  0  0
 16 17  1  1  0  0  0
 16 24  1  0  0  0  0
 18 19  1  6  0  0  0
 18 25  1  0  0  0  0
 20 21  1  1  0  0  0
 20 27  1  0  0  0  0
 22 23  1  6  0  0  0
 22 29  1  0  0  0  0
 24  2  1  6  0  0  0
 24 31  1  0  0  0  0
 25 26  1  0  0  0  0
 25 33  1  1  0  0  0
 27 28  1  6  0  0  0
 27 35  1  0  0  0  0
 29 30  1  0  0  0  0
 29 37  1  1  0  0  0
 31 32  1  1  0  0  0
 31 39  1  0  0  0  0
 33 34  1  0  0  0  0
 35 36  1  0  0  0  0
 35 41  1  1  0  0  0
 37 38  1  0  0  0  0
 39 40  1  6  0  0  0
 41 42  1  0  0  0  0
M  END
>  <CHROM.1>
-166.79242577,95.44403291,-165.13728074,-179.37903050,-128.32180056,-172.25644907
-173.93169454,88.35456122,-70.88424440,36.94730253,38.20043641,-13.22819044
-2.26508353,-0.27695269,0.01984841

>  <Name>
3c44_lig

>  <RI>
0

>  <Rbt.Current_Directory>
/home/itssahil/PROJECTS/Mol_Feturizer/New_Systems/rnas/3c44

>  <Rbt.Executable>
rbdock ($Id: //depot/dev/client3/rdock/2013.1/src/exe/rbdock.cxx#4 $)

>  <Rbt.Library>
libRbt.so (2013.1, Build901 2013/11/27)

>  <Rbt.Parameter_File>
/export/apps/rDock/src/rDock_2013.1_src/data/scripts/dock_solv.prm

>  <Rbt.Receptor>
prm/pocket_docking_6.prm

>  <SCORE>
-15.4379

>  <SCORE.INTER>
-20.4832

>  <SCORE.INTER.CONST>
1

>  <SCORE.INTER.POLAR>
-1.95779

>  <SCORE.INTER.ROT>
9

>  <SCORE.INTER.SOLV>
12.1935

>  <SCORE.INTER.VDW>
-20.794

>  <SCORE.INTER.norm>
-0.487696

>  <SCORE.INTRA>
5.04534

>  <SCORE.INTRA.DIHEDRAL>
2.79392

>  <SCORE.INTRA.DIHEDRAL.0>
14.8538

>  <SCORE.INTRA.POLAR>
0

>  <SCORE.INTRA.POLAR.0>
0

>  <SCORE.INTRA.REPUL>
0.196469

>  <SCORE.INTRA.REPUL.0>
0

>  <SCORE.INTRA.SOLV>
6.43794

>  <SCORE.INTRA.SOLV.lig_0>
-100.951

>  <SCORE.INTRA.VDW>
-0.552939

>  <SCORE.INTRA.VDW.0>
-5.71388

>  <SCORE.INTRA.norm>
0.120127

>  <SCORE.RESTR>
0

>  <SCORE.RESTR.CAVITY>
0

>  <SCORE.RESTR.norm>
0

>  <SCORE.SYSTEM>
0

>  <SCORE.SYSTEM.CONST>
0

>  <SCORE.SYSTEM.DIHEDRAL>
0

>  <SCORE.SYSTEM.SOLV>
0

>  <SCORE.SYSTEM.norm>
0

>  <SCORE.heavy>
42

>  <SCORE.norm>
-0.367569

>  <RMSD>
2.939

$$$$
3c44_lig
 OpenBabel11021811463D
libRbt.so/2013.1/901 2013/11/27
 42 45  0  0  0  0  0  0  0  0999 V2000
   36.2617   34.1222  -14.0243 C   0  0  2  0  0  0  0  0  0  0  0  0
   35.8474   34.7602  -12.8065 O   0  0  0  0  0  0  0  0  0  0  0  0
   33.7949   37.5630  -15.0695 C   0  0  2  0  0  0  0  0  0  0  0  0
   32.9284   38.5654  -15.7083 N   0  0  0  0  0  0  0  0  0  0  0  0
   36.9659   38.7001  -12.1599 C   0  0  1  0  0  0  0  0  0  0  0  0
   39.4501   41.6143  -12.6434 C   0  0  1  0  0  0  0  0  0  0  0  0
   37.3069   33.0504  -13.6977 C   0  0  2  0  0  0  0  0  0  0  0  0
   36.7944   32.1076  -12.6930 N   0  0  0  0  0  0  0  0  0  0  0  0
   32.9877   36.3209  -14.6811 C   0  0  0  0  0  0  0  0  0  0  0  0
   37.3297   39.2448  -10.7779 C   0  0  2  0  0  0  0  0  0  0  0  0
   36.3452   40.1880  -10.3502 O   0  0  0  0  0  0  0  0  0  0  0  0
   40.2486   42.6706  -11.8724 C   0  0  2  0  0  0  0  0  0  0  0  0
   39.3338   43.7576  -11.4972 N   0  0  0  0  0  0  0  0  0  0  0  0
   38.6037   33.6771  -13.1793 C   0  0  1  0  0  0  0  0  0  0  0  0
   39.5973   32.6570  -13.0400 O   0  0  0  0  0  0  0  0  0  0  0  0
   33.9733   35.2653  -14.1689 C   0  0  2  0  0  0  0  0  0  0  0  0
   33.2276   34.0770  -13.7277 N   0  0  0  0  0  0  0  0  0  0  0  0
   38.6125   39.9966  -11.1275 C   0  0  2  0  0  0  0  0  0  0  0  0
   38.3181   41.1975  -11.8598 O   0  0  0  0  0  0  0  0  0  0  0  0
   41.3785   43.2489  -12.7343 C   0  0  1  0  0  0  0  0  0  0  0  0
   42.4078   42.2751  -12.9269 O   0  0  0  0  0  0  0  0  0  0  0  0
   39.0964   34.7396  -14.1635 C   0  0  2  0  0  0  0  0  0  0  0  0
   40.2452   35.3984  -13.6239 O   0  0  0  0  0  0  0  0  0  0  0  0
   34.8391   35.7663  -13.0062 C   0  0  2  0  0  0  0  0  0  0  0  0
   39.2813   38.9895  -12.0498 C   0  0  2  0  0  0  0  0  0  0  0  0
   38.2238   38.2447  -12.6919 O   0  0  0  0  0  0  0  0  0  0  0  0
   40.8557   43.6886  -14.1030 C   0  0  2  0  0  0  0  0  0  0  0  0
   39.9905   44.8141  -13.9274 O   0  0  0  0  0  0  0  0  0  0  0  0
   37.9860   35.7615  -14.4121 C   0  0  2  0  0  0  0  0  0  0  0  0
   36.8102   35.1035  -14.9238 O   0  0  0  0  0  0  0  0  0  0  0  0
   35.4840   37.1298  -13.2464 C   0  0  2  0  0  0  0  0  0  0  0  0
   36.0201   37.6271  -12.0095 O   0  0  0  0  0  0  0  0  0  0  0  0
   40.1834   38.0662  -11.2281 C   0  0  0  0  0  0  0  0  0  0  0  0
   41.0783   37.3826  -12.1084 O   0  0  0  0  0  0  0  0  0  0  0  0
   40.0952   42.5241  -14.7430 C   0  0  1  0  0  0  0  0  0  0  0  0
   38.9946   42.1739  -13.8855 O   0  0  0  0  0  0  0  0  0  0  0  0
   38.5068   36.7733  -15.4360 C   0  0  0  0  0  0  0  0  0  0  0  0
   38.7956   36.0989  -16.7098 O   0  0  0  0  0  0  0  0  0  0  0  0
   34.4654   38.1257  -13.8137 C   0  0  1  0  0  0  0  0  0  0  0  0
   35.1093   39.3659  -14.1142 O   0  0  0  0  0  0  0  0  0  0  0  0
   39.5561   42.8773  -16.1297 C   0  0  0  0  0  0  0  0  0  0  0  0
   38.4241   41.9958  -16.4476 N   0  0  0  0  0  0  0  0  0  0  0  0
  1  2  1  1  0  0  0
  1  7  1  0  0  0  0
  1 30  1  0  0  0  0
  3  4  1  1  0  0  0
  3  9  1  0  0  0  0
  3 39  1  0  0  0  0
  5 10  1  0  0  0  0
  5 26  1  0  0  0  0
  5 32  1  1  0  0  0
  6 12  1  0  0  0  0
  6 36  1  0  0  0  0
  6 19  1  1  0  0  0
  7  8  1  1  0  0  0
  7 14  1  0  0  0  0
  9 16  1  0  0  0  0
 10 11  1  6  0  0  0
 10 18  1  0  0  0  0
 12 13  1  6  0  0  0
 12 20  1  0  0  0  0
 14 15  1  6  0  0  0
 14 22  1  0  0  0  0
 16 17  1  1  0  0  0
 16 24  1  0  0  0  0
 18 19  1  6  0  0  0
 18 25  1  0  0  0  0
 20 21  1  6  0  0  0
 20 27  1  0  0  0  0
 22 23  1  1  0  0  0
 22 29  1  0  0  0  0
 24  2  1  6  0  0  0
 24 31  1  0  0  0  0
 25 26  1  0  0  0  0
 25 33  1  1  0  0  0
 27 28  1  1  0  0  0
 27 35  1  0  0  0  0
 29 30  1  0  0  0  0
 29 37  1  6  0  0  0
 31 32  1  1  0  0  0
 31 39  1  0  0  0  0
 33 34  1  0  0  0  0
 35 36  1  0  0  0  0
 35 41  1  6  0  0  0
 37 38  1  0  0  0  0
 39 40  1  6  0  0  0
 41 42  1  0  0  0  0
M  END
>  <CHROM.1>
-178.64682425,173.32211821,-96.04419282,-156.59694071,33.96934644,-164.04990551
62.56393845,163.37666930,-157.03059908,37.78896467,38.28570877,-13.41420742
-2.03232465,-0.19662970,-0.02131169

>  <Name>
3c44_lig

>  <RI>
0

>  <Rbt.Current_Directory>
/home/itssahil/PROJECTS/Mol_Feturizer/New_Systems/rnas/3c44

>  <Rbt.Executable>
rbdock ($Id: //depot/dev/client3/rdock/2013.1/src/exe/rbdock.cxx#4 $)

>  <Rbt.Library>
libRbt.so (2013.1, Build901 2013/11/27)

>  <Rbt.Parameter_File>
/export/apps/rDock/src/rDock_2013.1_src/data/scripts/dock_solv.prm

>  <Rbt.Receptor>
prm/pocket_docking_2.prm

>  <SCORE>
0.913649

>  <SCORE.INTER>
-6.37175

>  <SCORE.INTER.CONST>
1

>  <SCORE.INTER.POLAR>
-0.968244

>  <SCORE.INTER.ROT>
9

>  <SCORE.INTER.SOLV>
19.4927

>  <SCORE.INTER.VDW>
-17.1179

>  <SCORE.INTER.norm>
-0.151708

>  <SCORE.INTRA>
5.41237

>  <SCORE.INTRA.DIHEDRAL>
-0.581691

>  <SCORE.INTRA.DIHEDRAL.0>
14.8538

>  <SCORE.INTRA.POLAR>
0

>  <SCORE.INTRA.POLAR.0>
0

>  <SCORE.INTRA.REPUL>
0.0313415

>  <SCORE.INTRA.REPUL.0>
0

>  <SCORE.INTRA.SOLV>
-2.53194

>  <SCORE.INTRA.SOLV.lig_0>
-100.951

>  <SCORE.INTRA.VDW>
6.81248

>  <SCORE.INTRA.VDW.0>
-5.71388

>  <SCORE.INTRA.norm>
0.128866

>  <SCORE.RESTR>
1.87302

>  <SCORE.RESTR.CAVITY>
1.87302

>  <SCORE.RESTR.norm>
0.0445958

>  <SCORE.SYSTEM>
0

>  <SCORE.SYSTEM.CONST>
0

>  <SCORE.SYSTEM.DIHEDRAL>
0

>  <SCORE.SYSTEM.SOLV>
0

>  <SCORE.SYSTEM.norm>
0

>  <SCORE.heavy>
42

>  <SCORE.norm>
0.0217536

>  <RMSD>
2.963

$$$$
3c44_lig
 OpenBabel11021811463D
libRbt.so/2013.1/901 2013/11/27
 42 45  0  0  0  0  0  0  0  0999 V2000
   35.2556   34.4679  -14.2965 C   0  0  2  0  0  0  0  0  0  0  0  0
   34.4098   35.1287  -13.3427 O   0  0  0  0  0  0  0  0  0  0  0  0
   32.5402   36.9784  -16.5478 C   0  0  2  0  0  0  0  0  0  0  0  0
   31.7099   37.6603  -17.5525 N   0  0  0  0  0  0  0  0  0  0  0  0
   35.2391   38.9912  -13.4472 C   0  0  1  0  0  0  0  0  0  0  0  0
   38.0172   42.0882  -13.8048 C   0  0  1  0  0  0  0  0  0  0  0  0
   36.1635   33.4778  -13.5593 C   0  0  2  0  0  0  0  0  0  0  0  0
   35.3703   32.5473  -12.7431 N   0  0  0  0  0  0  0  0  0  0  0  0
   31.8097   35.7564  -15.9835 C   0  0  0  0  0  0  0  0  0  0  0  0
   34.8950   40.3322  -12.7972 C   0  0  2  0  0  0  0  0  0  0  0  0
   34.1416   41.1365  -13.7067 O   0  0  0  0  0  0  0  0  0  0  0  0
   38.4134   42.6825  -15.1604 C   0  0  2  0  0  0  0  0  0  0  0  0
   38.4928   41.5886  -16.1383 N   0  0  0  0  0  0  0  0  0  0  0  0
   37.1642   34.2050  -12.6578 C   0  0  1  0  0  0  0  0  0  0  0  0
   38.0877   33.2555  -12.1169 O   0  0  0  0  0  0  0  0  0  0  0  0
   32.7859   35.0115  -15.0669 C   0  0  2  0  0  0  0  0  0  0  0  0
   32.0997   33.8628  -14.4565 N   0  0  0  0  0  0  0  0  0  0  0  0
   36.2980   40.9213  -12.6650 C   0  0  2  0  0  0  0  0  0  0  0  0
   36.8056   41.3262  -13.9470 O   0  0  0  0  0  0  0  0  0  0  0  0
   39.7788   43.3779  -15.0825 C   0  0  1  0  0  0  0  0  0  0  0  0
   39.6820   44.5838  -14.3201 O   0  0  0  0  0  0  0  0  0  0  0  0
   37.9263   35.2545  -13.4690 C   0  0  2  0  0  0  0  0  0  0  0  0
   38.7799   36.0055  -12.6015 O   0  0  0  0  0  0  0  0  0  0  0  0
   33.3572   35.8965  -13.9521 C   0  0  2  0  0  0  0  0  0  0  0  0
   37.0652   39.7029  -12.1761 C   0  0  2  0  0  0  0  0  0  0  0  0
   36.3972   38.5432  -12.7186 O   0  0  0  0  0  0  0  0  0  0  0  0
   40.8226   42.4681  -14.4326 C   0  0  2  0  0  0  0  0  0  0  0  0
   41.0836   41.3662  -15.3066 O   0  0  0  0  0  0  0  0  0  0  0  0
   36.9321   36.1940  -14.1531 C   0  0  2  0  0  0  0  0  0  0  0  0
   36.0435   35.4433  -15.0040 O   0  0  0  0  0  0  0  0  0  0  0  0
   33.8882   37.2456  -14.4323 C   0  0  2  0  0  0  0  0  0  0  0  0
   34.1240   38.0952  -13.2977 O   0  0  0  0  0  0  0  0  0  0  0  0
   37.0578   39.6759  -10.6461 C   0  0  0  0  0  0  0  0  0  0  0  0
   37.8588   38.5819  -10.1940 O   0  0  0  0  0  0  0  0  0  0  0  0
   40.2816   41.9693  -13.0901 C   0  0  1  0  0  0  0  0  0  0  0  0
   39.0703   41.2324  -13.3336 O   0  0  0  0  0  0  0  0  0  0  0  0
   37.7368   37.1930  -14.9884 C   0  0  0  0  0  0  0  0  0  0  0  0
   38.4690   36.4883  -16.0506 O   0  0  0  0  0  0  0  0  0  0  0  0
   32.8966   37.9154  -15.3910 C   0  0  1  0  0  0  0  0  0  0  0  0
   33.4511   39.1318  -15.8969 O   0  0  0  0  0  0  0  0  0  0  0  0
   41.2790   41.0661  -12.3635 C   0  0  0  0  0  0  0  0  0  0  0  0
   42.4302   41.8688  -11.9278 N   0  0  0  0  0  0  0  0  0  0  0  0
  1  2  1  1  0  0  0
  1  7  1  0  0  0  0
  1 30  1  0  0  0  0
  3  4  1  6  0  0  0
  3  9  1  0  0  0  0
  3 39  1  0  0  0  0
  5 10  1  0  0  0  0
  5 26  1  0  0  0  0
  5 32  1  1  0  0  0
  6 12  1  0  0  0  0
  6 36  1  0  0  0  0
  6 19  1  6  0  0  0
  7  8  1  1  0  0  0
  7 14  1  0  0  0  0
  9 16  1  0  0  0  0
 10 11  1  6  0  0  0
 10 18  1  0  0  0  0
 12 13  1  6  0  0  0
 12 20  1  0  0  0  0
 14 15  1  6  0  0  0
 14 22  1  0  0  0  0
 16 17  1  1  0  0  0
 16 24  1  0  0  0  0
 18 19  1  6  0  0  0
 18 25  1  0  0  0  0
 20 21  1  1  0  0  0
 20 27  1  0  0  0  0
 22 23  1  1  0  0  0
 22 29  1  0  0  0  0
 24  2  1  6  0  0  0
 24 31  1  0  0  0  0
 25 26  1  0  0  0  0
 25 33  1  1  0  0  0
 27 28  1  6  0  0  0
 27 35  1  0  0  0  0
 29 30  1  0  0  0  0
 29 37  1  6  0  0  0
 31 32  1  1  0  0  0
 31 39  1  0  0  0  0
 33 34  1  0  0  0  0
 35 36  1  0  0  0  0
 35 41  1  6  0  0  0
 37 38  1  0  0  0  0
 39 40  1  6  0  0  0
 41 42  1  0  0  0  0
M  END
>  <CHROM.1>
-169.34693465,142.40502836,-171.42231370,169.95927027,43.91038704,-175.97535803
63.51696917,146.40249085,68.56047498,36.60393325,38.36095296,-13.91116354
-2.31444545,-0.39732663,-0.23503524

>  <Name>
3c44_lig

>  <RI>
224

>  <Rbt.Current_Directory>
/home/itssahil/PROJECTS/Mol_Feturizer/New_Systems/rnas/3c44

>  <Rbt.Executable>
rbdock ($Id: //depot/dev/client3/rdock/2013.1/src/exe/rbdock.cxx#4 $)

>  <Rbt.Library>
libRbt.so (2013.1, Build901 2013/11/27)

>  <Rbt.Parameter_File>
/export/apps/rDock/src/rDock_2013.1_src/data/scripts/dock_solv.prm

>  <Rbt.Receptor>
prm/pocket_docking_3.prm

>  <SCORE>
-4.10288

>  <SCORE.INTER>
-4.37144

>  <SCORE.INTER.CONST>
1

>  <SCORE.INTER.POLAR>
-0.301623

>  <SCORE.INTER.ROT>
9

>  <SCORE.INTER.SOLV>
20.9717

>  <SCORE.INTER.VDW>
-18.4994

>  <SCORE.INTER.norm>
-0.104082

>  <SCORE.INTRA>
0.254714

>  <SCORE.INTRA.DIHEDRAL>
-2.34162

>  <SCORE.INTRA.DIHEDRAL.0>
14.8538

>  <SCORE.INTRA.POLAR>
0

>  <SCORE.INTRA.POLAR.0>
0

>  <SCORE.INTRA.REPUL>
0

>  <SCORE.INTRA.REPUL.0>
0

>  <SCORE.INTRA.SOLV>
-2.66856

>  <SCORE.INTRA.SOLV.lig_0>
-100.951

>  <SCORE.INTRA.VDW>
2.7598

>  <SCORE.INTRA.VDW.0>
-5.71388

>  <SCORE.INTRA.norm>
0.00606461

>  <SCORE.RESTR>
0.0138463

>  <SCORE.RESTR.CAVITY>
0.0138463

>  <SCORE.RESTR.norm>
0.000329674

>  <SCORE.SYSTEM>
0

>  <SCORE.SYSTEM.CONST>
0

>  <SCORE.SYSTEM.DIHEDRAL>
0

>  <SCORE.SYSTEM.SOLV>
0

>  <SCORE.SYSTEM.norm>
0

>  <SCORE.heavy>
42

>  <SCORE.norm>
-0.0976876

>  <RMSD>
3.003

$$$$
3c44_lig
 OpenBabel11021811463D
libRbt.so/2013.1/901 2013/11/27
 42 45  0  0  0  0  0  0  0  0999 V2000
   36.6365   36.3912  -12.7643 C   0  0  2  0  0  0  0  0  0  0  0  0
   36.0963   36.4292  -14.0942 O   0  0  0  0  0  0  0  0  0  0  0  0
   32.4158   36.3580  -16.0015 C   0  0  2  0  0  0  0  0  0  0  0  0
   31.0345   36.2490  -16.4955 N   0  0  0  0  0  0  0  0  0  0  0  0
   35.2784   39.1862  -13.1853 C   0  0  1  0  0  0  0  0  0  0  0  0
   38.6411   41.4492  -13.1032 C   0  0  1  0  0  0  0  0  0  0  0  0
   38.1218   36.7643  -12.8162 C   0  0  2  0  0  0  0  0  0  0  0  0
   38.3137   38.0595  -13.4845 N   0  0  0  0  0  0  0  0  0  0  0  0
   32.9223   34.9986  -15.5109 C   0  0  0  0  0  0  0  0  0  0  0  0
   35.0730   40.5918  -13.7520 C   0  0  2  0  0  0  0  0  0  0  0  0
   35.2327   40.5739  -15.1718 O   0  0  0  0  0  0  0  0  0  0  0  0
   39.8250   41.5049  -14.0743 C   0  0  2  0  0  0  0  0  0  0  0  0
   40.0379   40.1574  -14.6203 N   0  0  0  0  0  0  0  0  0  0  0  0
   38.9384   35.6976  -13.5499 C   0  0  1  0  0  0  0  0  0  0  0  0
   40.3305   36.0081  -13.4351 O   0  0  0  0  0  0  0  0  0  0  0  0
   34.4060   35.1525  -15.1602 C   0  0  2  0  0  0  0  0  0  0  0  0
   34.9141   33.8799  -14.6260 N   0  0  0  0  0  0  0  0  0  0  0  0
   36.2762   41.2978  -13.1301 C   0  0  2  0  0  0  0  0  0  0  0  0
   37.4963   40.8877  -13.7690 O   0  0  0  0  0  0  0  0  0  0  0  0
   41.1054   41.9588  -13.3611 C   0  0  1  0  0  0  0  0  0  0  0  0
   41.0214   43.3445  -13.0182 O   0  0  0  0  0  0  0  0  0  0  0  0
   38.6689   34.3231  -12.9347 C   0  0  2  0  0  0  0  0  0  0  0  0
   39.3469   33.3168  -13.6914 O   0  0  0  0  0  0  0  0  0  0  0  0
   34.6684   36.2607  -14.1329 C   0  0  2  0  0  0  0  0  0  0  0  0
   36.2278   40.7360  -11.7180 C   0  0  2  0  0  0  0  0  0  0  0  0
   35.6432   39.4190  -11.8122 O   0  0  0  0  0  0  0  0  0  0  0  0
   41.3395   41.1499  -12.0841 C   0  0  2  0  0  0  0  0  0  0  0  0
   41.6443   39.7990  -12.4422 O   0  0  0  0  0  0  0  0  0  0  0  0
   37.1648   34.0458  -12.9402 C   0  0  2  0  0  0  0  0  0  0  0  0
   36.4671   35.0735  -12.2093 O   0  0  0  0  0  0  0  0  0  0  0  0
   33.9817   37.5871  -14.4518 C   0  0  2  0  0  0  0  0  0  0  0  0
   34.0503   38.4468  -13.3025 O   0  0  0  0  0  0  0  0  0  0  0  0
   35.3793   41.6522  -10.8335 C   0  0  0  0  0  0  0  0  0  0  0  0
   35.9041   42.9802  -10.8970 O   0  0  0  0  0  0  0  0  0  0  0  0
   40.0749   41.2024  -11.2228 C   0  0  1  0  0  0  0  0  0  0  0  0
   38.9889   40.6319  -11.9742 O   0  0  0  0  0  0  0  0  0  0  0  0
   36.9410   32.6860  -12.2738 C   0  0  0  0  0  0  0  0  0  0  0  0
   36.7756   32.8563  -10.8231 O   0  0  0  0  0  0  0  0  0  0  0  0
   32.5185   37.3644  -14.8526 C   0  0  1  0  0  0  0  0  0  0  0  0
   31.9211   38.6062  -15.2323 O   0  0  0  0  0  0  0  0  0  0  0  0
   40.2350   40.4317   -9.9117 C   0  0  0  0  0  0  0  0  0  0  0  0
   38.9886   40.5271   -9.1391 N   0  0  0  0  0  0  0  0  0  0  0  0
  1  2  1  6  0  0  0
  1  7  1  0  0  0  0
  1 30  1  0  0  0  0
  3  4  1  1  0  0  0
  3  9  1  0  0  0  0
  3 39  1  0  0  0  0
  5 10  1  0  0  0  0
  5 26  1  0  0  0  0
  5 32  1  1  0  0  0
  6 12  1  0  0  0  0
  6 36  1  0  0  0  0
  6 19  1  6  0  0  0
  7  8  1  6  0  0  0
  7 14  1  0  0  0  0
  9 16  1  0  0  0  0
 10 11  1  6  0  0  0
 10 18  1  0  0  0  0
 12 13  1  1  0  0  0
 12 20  1  0  0  0  0
 14 15  1  1  0  0  0
 14 22  1  0  0  0  0
 16 17  1  1  0  0  0
 16 24  1  0  0  0  0
 18 19  1  6  0  0  0
 18 25  1  0  0  0  0
 20 21  1  1  0  0  0
 20 27  1  0  0  0  0
 22 23  1  6  0  0  0
 22 29  1  0  0  0  0
 24  2  1  6  0  0  0
 24 31  1  0  0  0  0
 25 26  1  0  0  0  0
 25 33  1  1  0  0  0
 27 28  1  6  0  0  0
 27 35  1  0  0  0  0
 29 30  1  0  0  0  0
 29 37  1  1  0  0  0
 31 32  1  1  0  0  0
 31 39  1  0  0  0  0
 33 34  1  0  0  0  0
 35 36  1  0  0  0  0
 35 41  1  1  0  0  0
 37 38  1  0  0  0  0
 39 40  1  6  0  0  0
 41 42  1  0  0  0  0
M  END
>  <CHROM.1>
-172.51021165,97.45506115,-156.60473702,-174.39456878,-129.14042548,-55.46289814
88.84774114,83.89046164,179.91192837,36.94314563,38.24485055,-13.17345316
-2.28833386,-0.33369600,0.06442429

>  <Name>
3c44_lig

>  <RI>
0

>  <Rbt.Current_Directory>
/home/itssahil/PROJECTS/Mol_Feturizer/New_Systems/rnas/3c44

>  <Rbt.Executable>
rbdock ($Id: //depot/dev/client3/rdock/2013.1/src/exe/rbdock.cxx#4 $)

>  <Rbt.Library>
libRbt.so (2013.1, Build901 2013/11/27)

>  <Rbt.Parameter_File>
/export/apps/rDock/src/rDock_2013.1_src/data/scripts/dock_solv.prm

>  <Rbt.Receptor>
prm/pocket_docking_5.prm

>  <SCORE>
-19.573

>  <SCORE.INTER>
-24.8247

>  <SCORE.INTER.CONST>
1

>  <SCORE.INTER.POLAR>
-2.82282

>  <SCORE.INTER.ROT>
9

>  <SCORE.INTER.SOLV>
11.4771

>  <SCORE.INTER.VDW>
-20.5661

>  <SCORE.INTER.norm>
-0.591064

>  <SCORE.INTRA>
5.25172

>  <SCORE.INTRA.DIHEDRAL>
4.97838

>  <SCORE.INTRA.DIHEDRAL.0>
14.8538

>  <SCORE.INTRA.POLAR>
0

>  <SCORE.INTRA.POLAR.0>
0

>  <SCORE.INTRA.REPUL>
0.0826608

>  <SCORE.INTRA.REPUL.0>
0

>  <SCORE.INTRA.SOLV>
5.16566

>  <SCORE.INTRA.SOLV.lig_0>
-100.951

>  <SCORE.INTRA.VDW>
-0.233601

>  <SCORE.INTRA.VDW.0>
-5.71388

>  <SCORE.INTRA.norm>
0.125041

>  <SCORE.RESTR>
0

>  <SCORE.RESTR.CAVITY>
0

>  <SCORE.RESTR.norm>
0

>  <SCORE.SYSTEM>
0

>  <SCORE.SYSTEM.CONST>
0

>  <SCORE.SYSTEM.DIHEDRAL>
0

>  <SCORE.SYSTEM.SOLV>
0

>  <SCORE.SYSTEM.norm>
0

>  <SCORE.heavy>
42

>  <SCORE.norm>
-0.466023

>  <RMSD>
3.094

$$$$
3c44_lig
 OpenBabel11021811463D
libRbt.so/2013.1/901 2013/11/27
 42 45  0  0  0  0  0  0  0  0999 V2000
   36.5283   34.0349  -15.1424 C   0  0  2  0  0  0  0  0  0  0  0  0
   36.1687   35.3088  -15.6988 O   0  0  0  0  0  0  0  0  0  0  0  0
   32.6052   36.7600  -17.2433 C   0  0  2  0  0  0  0  0  0  0  0  0
   31.2469   37.1750  -17.6262 N   0  0  0  0  0  0  0  0  0  0  0  0
   35.4725   38.8663  -14.3044 C   0  0  1  0  0  0  0  0  0  0  0  0
   36.8301   42.7864  -13.3807 C   0  0  1  0  0  0  0  0  0  0  0  0
   36.3144   34.0725  -13.6256 C   0  0  2  0  0  0  0  0  0  0  0  0
   34.9404   34.4816  -13.3003 N   0  0  0  0  0  0  0  0  0  0  0  0
   32.6886   35.2361  -17.1173 C   0  0  0  0  0  0  0  0  0  0  0  0
   35.6299   39.3550  -12.8638 C   0  0  2  0  0  0  0  0  0  0  0  0
   34.4178   39.9687  -12.4213 O   0  0  0  0  0  0  0  0  0  0  0  0
   37.6655   43.2470  -14.5798 C   0  0  2  0  0  0  0  0  0  0  0  0
   38.5163   42.1276  -15.0066 N   0  0  0  0  0  0  0  0  0  0  0  0
   37.2953   35.0330  -12.9486 C   0  0  1  0  0  0  0  0  0  0  0  0
   37.1654   34.9158  -11.5285 O   0  0  0  0  0  0  0  0  0  0  0  0
   34.1557   34.8678  -16.8724 C   0  0  2  0  0  0  0  0  0  0  0  0
   34.2673   33.4134  -16.6846 N   0  0  0  0  0  0  0  0  0  0  0  0
   36.6831   40.4410  -13.0745 C   0  0  2  0  0  0  0  0  0  0  0  0
   36.1118   41.5884  -13.7241 O   0  0  0  0  0  0  0  0  0  0  0  0
   38.5606   44.4360  -14.2070 C   0  0  1  0  0  0  0  0  0  0  0  0
   37.7716   45.6121  -14.0088 O   0  0  0  0  0  0  0  0  0  0  0  0
   38.7275   34.6883  -13.3611 C   0  0  2  0  0  0  0  0  0  0  0  0
   39.6302   35.6539  -12.8154 O   0  0  0  0  0  0  0  0  0  0  0  0
   34.7555   35.5724  -15.6492 C   0  0  2  0  0  0  0  0  0  0  0  0
   37.6256   39.7306  -14.0332 C   0  0  2  0  0  0  0  0  0  0  0  0
   36.8244   38.8018  -14.7952 O   0  0  0  0  0  0  0  0  0  0  0  0
   39.3482   44.1511  -12.9271 C   0  0  2  0  0  0  0  0  0  0  0  0
   40.2992   43.1157  -13.1905 O   0  0  0  0  0  0  0  0  0  0  0  0
   38.8348   34.6874  -14.8868 C   0  0  2  0  0  0  0  0  0  0  0  0
   37.9041   33.7421  -15.4501 O   0  0  0  0  0  0  0  0  0  0  0  0
   34.4932   37.0762  -15.6002 C   0  0  2  0  0  0  0  0  0  0  0  0
   34.8357   37.5767  -14.2976 O   0  0  0  0  0  0  0  0  0  0  0  0
   38.7072   38.9983  -13.2360 C   0  0  0  0  0  0  0  0  0  0  0  0
   39.5030   39.9580  -12.5370 O   0  0  0  0  0  0  0  0  0  0  0  0
   38.3737   43.7156  -11.8295 C   0  0  1  0  0  0  0  0  0  0  0  0
   37.6990   42.5230  -12.2675 O   0  0  0  0  0  0  0  0  0  0  0  0
   40.2679   34.2915  -15.2512 C   0  0  0  0  0  0  0  0  0  0  0  0
   40.4991   34.5001  -16.6879 O   0  0  0  0  0  0  0  0  0  0  0  0
   33.0243   37.3869  -15.9111 C   0  0  1  0  0  0  0  0  0  0  0  0
   32.8208   38.8012  -15.9479 O   0  0  0  0  0  0  0  0  0  0  0  0
   39.0832   43.4311  -10.5051 C   0  0  0  0  0  0  0  0  0  0  0  0
   39.6262   44.6865   -9.9677 N   0  0  0  0  0  0  0  0  0  0  0  0
  1  2  1  1  0  0  0
  1  7  1  0  0  0  0
  1 30  1  0  0  0  0
  3  4  1  1  0  0  0
  3  9  1  0  0  0  0
  3 39  1  0  0  0  0
  5 10  1  0  0  0  0
  5 26  1  0  0  0  0
  5 32  1  1  0  0  0
  6 12  1  0  0  0  0
  6 36  1  0  0  0  0
  6 19  1  6  0  0  0
  7  8  1  6  0  0  0
  7 14  1  0  0  0  0
  9 16  1  0  0  0  0
 10 11  1  6  0  0  0
 10 18  1  0  0  0  0
 12 13  1  1  0  0  0
 12 20  1  0  0  0  0
 14 15  1  1  0  0  0
 14 22  1  0  0  0  0
 16 17  1  1  0  0  0
 16 24  1  0  0  0  0
 18 19  1  6  0  0  0
 18 25  1  0  0  0  0
 20 21  1  1  0  0  0
 20 27  1  0  0  0  0
 22 23  1  1  0  0  0
 22 29  1  0  0  0  0
 24  2  1  6  0  0  0
 24 31  1  0  0  0  0
 25 26  1  0  0  0  0
 25 33  1  1  0  0  0
 27 28  1  6  0  0  0
 27 35  1  0  0  0  0
 29 30  1  0  0  0  0
 29 37  1  1  0  0  0
 31 32  1  1  0  0  0
 31 39  1  0  0  0  0
 33 34  1  0  0  0  0
 35 36  1  0  0  0  0
 35 41  1  1  0  0  0
 37 38  1  0  0  0  0
 39 40  1  6  0  0  0
 41 42  1  0  0  0  0
M  END
>  <CHROM.1>
-69.42569122,173.27034803,106.97001020,152.80167928,-82.96331759,-64.33791490
-170.12847953,141.21644408,67.05941223,36.79258564,38.50681731,-14.18666757
-1.91017007,-0.41813344,0.17761610

>  <Name>
3c44_lig

>  <RI>
224

>  <Rbt.Current_Directory>
/home/itssahil/PROJECTS/Mol_Feturizer/New_Systems/rnas/3c44

>  <Rbt.Executable>
rbdock ($Id: //depot/dev/client3/rdock/2013.1/src/exe/rbdock.cxx#4 $)

>  <Rbt.Library>
libRbt.so (2013.1, Build901 2013/11/27)

>  <Rbt.Parameter_File>
/export/apps/rDock/src/rDock_2013.1_src/data/scripts/dock_solv.prm

>  <Rbt.Receptor>
prm/pocket_docking_3.prm

>  <SCORE>
-2.55982

>  <SCORE.INTER>
-10.5313

>  <SCORE.INTER.CONST>
1

>  <SCORE.INTER.POLAR>
-1.89558

>  <SCORE.INTER.ROT>
9

>  <SCORE.INTER.SOLV>
12.8899

>  <SCORE.INTER.VDW>
-14.5989

>  <SCORE.INTER.norm>
-0.250744

>  <SCORE.INTRA>
7.8345

>  <SCORE.INTRA.DIHEDRAL>
3.53218

>  <SCORE.INTRA.DIHEDRAL.0>
14.8538

>  <SCORE.INTRA.POLAR>
0

>  <SCORE.INTRA.POLAR.0>
0

>  <SCORE.INTRA.REPUL>
0.117357

>  <SCORE.INTRA.REPUL.0>
0

>  <SCORE.INTRA.SOLV>
2.98431

>  <SCORE.INTRA.SOLV.lig_0>
-100.951

>  <SCORE.INTRA.VDW>
3.98947

>  <SCORE.INTRA.VDW.0>
-5.71388

>  <SCORE.INTRA.norm>
0.186536

>  <SCORE.RESTR>
0.136928

>  <SCORE.RESTR.CAVITY>
0.136928

>  <SCORE.RESTR.norm>
0.00326019

>  <SCORE.SYSTEM>
0

>  <SCORE.SYSTEM.CONST>
0

>  <SCORE.SYSTEM.DIHEDRAL>
0

>  <SCORE.SYSTEM.SOLV>
0

>  <SCORE.SYSTEM.norm>
0

>  <SCORE.heavy>
42

>  <SCORE.norm>
-0.0609482

>  <RMSD>
3.125

$$$$
3c44_lig
 OpenBabel11021811463D
libRbt.so/2013.1/901 2013/11/27
 42 45  0  0  0  0  0  0  0  0999 V2000
   36.9881   33.4753  -14.3834 C   0  0  2  0  0  0  0  0  0  0  0  0
   36.5781   33.8477  -13.0587 O   0  0  0  0  0  0  0  0  0  0  0  0
   34.0133   36.6246  -14.7618 C   0  0  2  0  0  0  0  0  0  0  0  0
   32.9817   37.5811  -15.1916 N   0  0  0  0  0  0  0  0  0  0  0  0
   37.0599   37.9249  -11.9279 C   0  0  1  0  0  0  0  0  0  0  0  0
   38.4326   41.4710  -12.1001 C   0  0  1  0  0  0  0  0  0  0  0  0
   38.1474   32.4779  -14.2870 C   0  0  2  0  0  0  0  0  0  0  0  0
   37.7811   31.3283  -13.4473 N   0  0  0  0  0  0  0  0  0  0  0  0
   33.3924   35.2548  -14.4728 C   0  0  0  0  0  0  0  0  0  0  0  0
   37.6190   38.2492  -10.5418 C   0  0  2  0  0  0  0  0  0  0  0  0
   36.5702   38.7105   -9.6880 O   0  0  0  0  0  0  0  0  0  0  0  0
   39.5779   42.1739  -11.3639 C   0  0  2  0  0  0  0  0  0  0  0  0
   39.0226   42.8455  -10.1808 N   0  0  0  0  0  0  0  0  0  0  0  0
   39.4028   33.1376  -13.7110 C   0  0  1  0  0  0  0  0  0  0  0  0
   40.4961   32.2177  -13.7879 O   0  0  0  0  0  0  0  0  0  0  0  0
   34.5355   34.2758  -14.1849 C   0  0  2  0  0  0  0  0  0  0  0  0
   33.9745   32.9603  -13.8418 N   0  0  0  0  0  0  0  0  0  0  0  0
   38.5193   39.4305  -10.8978 C   0  0  2  0  0  0  0  0  0  0  0  0
   37.7370   40.5997  -11.1913 O   0  0  0  0  0  0  0  0  0  0  0  0
   40.2506   43.2227  -12.2592 C   0  0  1  0  0  0  0  0  0  0  0  0
   40.9991   42.5860  -13.2981 O   0  0  0  0  0  0  0  0  0  0  0  0
   39.7390   34.3989  -14.5087 C   0  0  2  0  0  0  0  0  0  0  0  0
   40.8454   35.0710  -13.9010 O   0  0  0  0  0  0  0  0  0  0  0  0
   35.4485   34.7380  -13.0423 C   0  0  2  0  0  0  0  0  0  0  0  0
   39.1614   38.9143  -12.1758 C   0  0  2  0  0  0  0  0  0  0  0  0
   38.2065   38.0238  -12.7928 O   0  0  0  0  0  0  0  0  0  0  0  0
   39.2129   44.1477  -12.8973 C   0  0  2  0  0  0  0  0  0  0  0  0
   38.6161   44.9486  -11.8734 O   0  0  0  0  0  0  0  0  0  0  0  0
   38.5238   35.3272  -14.5349 C   0  0  2  0  0  0  0  0  0  0  0  0
   37.3920   34.6483  -15.1141 O   0  0  0  0  0  0  0  0  0  0  0  0
   35.9096   36.1896  -13.1558 C   0  0  2  0  0  0  0  0  0  0  0  0
   36.5041   36.5984  -11.9132 O   0  0  0  0  0  0  0  0  0  0  0  0
   40.4583   38.1779  -11.8335 C   0  0  0  0  0  0  0  0  0  0  0  0
   41.1573   37.8754  -13.0429 O   0  0  0  0  0  0  0  0  0  0  0  0
   38.1505   43.2961  -13.5973 C   0  0  1  0  0  0  0  0  0  0  0  0
   37.5214   42.4553  -12.6141 O   0  0  0  0  0  0  0  0  0  0  0  0
   38.8907   36.5486  -15.3816 C   0  0  0  0  0  0  0  0  0  0  0  0
   39.3391   36.1220  -16.7150 O   0  0  0  0  0  0  0  0  0  0  0  0
   34.7353   37.1122  -13.5031 C   0  0  1  0  0  0  0  0  0  0  0  0
   35.2034   38.4495  -13.6921 O   0  0  0  0  0  0  0  0  0  0  0  0
   37.0827   44.1502  -14.2819 C   0  0  0  0  0  0  0  0  0  0  0  0
   35.9820   43.2840  -14.7265 N   0  0  0  0  0  0  0  0  0  0  0  0
  1  2  1  1  0  0  0
  1  7  1  0  0  0  0
  1 30  1  0  0  0  0
  3  4  1  1  0  0  0
  3  9  1  0  0  0  0
  3 39  1  0  0  0  0
  5 10  1  0  0  0  0
  5 26  1  0  0  0  0
  5 32  1  1  0  0  0
  6 12  1  0  0  0  0
  6 36  1  0  0  0  0
  6 19  1  1  0  0  0
  7  8  1  1  0  0  0
  7 14  1  0  0  0  0
  9 16  1  0  0  0  0
 10 11  1  1  0  0  0
 10 18  1  0  0  0  0
 12 13  1  1  0  0  0
 12 20  1  0  0  0  0
 14 15  1  6  0  0  0
 14 22  1  0  0  0  0
 16 17  1  1  0  0  0
 16 24  1  0  0  0  0
 18 19  1  6  0  0  0
 18 25  1  0  0  0  0
 20 21  1  6  0  0  0
 20 27  1  0  0  0  0
 22 23  1  1  0  0  0
 22 29  1  0  0  0  0
 24  2  1  6  0  0  0
 24 31  1  0  0  0  0
 25 26  1  0  0  0  0
 25 33  1  1  0  0  0
 27 28  1  1  0  0  0
 27 35  1  0  0  0  0
 29 30  1  0  0  0  0
 29 37  1  6  0  0  0
 31 32  1  1  0  0  0
 31 39  1  0  0  0  0
 33 34  1  0  0  0  0
 35 36  1  0  0  0  0
 35 41  1  1  0  0  0
 37 38  1  0  0  0  0
 39 40  1  6  0  0  0
 41 42  1  0  0  0  0
M  END
>  <CHROM.1>
-177.26774039,178.31206865,-73.33235181,-152.41606790,37.28225722,-171.23691431
55.49617055,176.01418634,-170.24453432,37.70355649,37.88931866,-13.18562659
1.73579815,0.11692399,-2.97184868

>  <Name>
3c44_lig

>  <RI>
224

>  <Rbt.Current_Directory>
/home/itssahil/PROJECTS/Mol_Feturizer/New_Systems/rnas/3c44

>  <Rbt.Executable>
rbdock ($Id: //depot/dev/client3/rdock/2013.1/src/exe/rbdock.cxx#4 $)

>  <Rbt.Library>
libRbt.so (2013.1, Build901 2013/11/27)

>  <Rbt.Parameter_File>
/export/apps/rDock/src/rDock_2013.1_src/data/scripts/dock_solv.prm

>  <Rbt.Receptor>
prm/pocket_docking_3.prm

>  <SCORE>
-0.0412143

>  <SCORE.INTER>
-3.27726

>  <SCORE.INTER.CONST>
1

>  <SCORE.INTER.POLAR>
-0.0995167

>  <SCORE.INTER.ROT>
9

>  <SCORE.INTER.SOLV>
22.8956

>  <SCORE.INTER.VDW>
-19.085

>  <SCORE.INTER.norm>
-0.0780301

>  <SCORE.INTRA>
2.80087

>  <SCORE.INTRA.DIHEDRAL>
-7.60957

>  <SCORE.INTRA.DIHEDRAL.0>
14.8538

>  <SCORE.INTRA.POLAR>
0

>  <SCORE.INTRA.POLAR.0>
0

>  <SCORE.INTRA.REPUL>
0

>  <SCORE.INTRA.REPUL.0>
0

>  <SCORE.INTRA.SOLV>
-2.4698

>  <SCORE.INTRA.SOLV.lig_0>
-100.951

>  <SCORE.INTRA.VDW>
7.84056

>  <SCORE.INTRA.VDW.0>
-5.71388

>  <SCORE.INTRA.norm>
0.0666875

>  <SCORE.RESTR>
0.435177

>  <SCORE.RESTR.CAVITY>
0.435177

>  <SCORE.RESTR.norm>
0.0103613

>  <SCORE.SYSTEM>
0

>  <SCORE.SYSTEM.CONST>
0

>  <SCORE.SYSTEM.DIHEDRAL>
0

>  <SCORE.SYSTEM.SOLV>
0

>  <SCORE.SYSTEM.norm>
0

>  <SCORE.heavy>
42

>  <SCORE.norm>
-0.000981293

>  <RMSD>
3.162

$$$$
3c44_lig
 OpenBabel11021811463D
libRbt.so/2013.1/901 2013/11/27
 42 45  0  0  0  0  0  0  0  0999 V2000
   36.7462   35.9501  -14.5298 C   0  0  2  0  0  0  0  0  0  0  0  0
   35.9953   36.1147  -13.3171 O   0  0  0  0  0  0  0  0  0  0  0  0
   32.5879   36.0541  -15.6783 C   0  0  2  0  0  0  0  0  0  0  0  0
   31.2714   36.0036  -16.3326 N   0  0  0  0  0  0  0  0  0  0  0  0
   35.4168   39.2677  -13.3542 C   0  0  1  0  0  0  0  0  0  0  0  0
   38.4707   42.1610  -13.4409 C   0  0  1  0  0  0  0  0  0  0  0  0
   37.6554   34.7242  -14.3935 C   0  0  2  0  0  0  0  0  0  0  0  0
   36.8767   33.5327  -14.0260 N   0  0  0  0  0  0  0  0  0  0  0  0
   32.8220   34.7947  -14.8390 C   0  0  0  0  0  0  0  0  0  0  0  0
   35.2155   40.5882  -12.6094 C   0  0  2  0  0  0  0  0  0  0  0  0
   34.5752   41.5379  -13.4637 O   0  0  0  0  0  0  0  0  0  0  0  0
   38.1657   43.6557  -13.2972 C   0  0  2  0  0  0  0  0  0  0  0  0
   37.4085   44.0879  -14.4800 N   0  0  0  0  0  0  0  0  0  0  0  0
   38.7446   34.9531  -13.3427 C   0  0  1  0  0  0  0  0  0  0  0  0
   39.6583   33.8521  -13.3637 O   0  0  0  0  0  0  0  0  0  0  0  0
   34.2622   34.8425  -14.3179 C   0  0  2  0  0  0  0  0  0  0  0  0
   34.5061   33.6769  -13.4548 N   0  0  0  0  0  0  0  0  0  0  0  0
   36.6738   41.0012  -12.4199 C   0  0  2  0  0  0  0  0  0  0  0  0
   37.2474   41.4376  -13.6631 O   0  0  0  0  0  0  0  0  0  0  0  0
   39.4576   44.4784  -13.2077 C   0  0  1  0  0  0  0  0  0  0  0  0
   40.1073   44.2529  -11.9540 O   0  0  0  0  0  0  0  0  0  0  0  0
   39.4981   36.2486  -13.6496 C   0  0  2  0  0  0  0  0  0  0  0  0
   40.4394   36.5155  -12.6067 O   0  0  0  0  0  0  0  0  0  0  0  0
   34.5721   36.1187  -13.5256 C   0  0  2  0  0  0  0  0  0  0  0  0
   37.2883   39.6704  -12.0157 C   0  0  2  0  0  0  0  0  0  0  0  0
   36.5029   38.6377  -12.6498 O   0  0  0  0  0  0  0  0  0  0  0  0
   40.4234   44.1095  -14.3351 C   0  0  2  0  0  0  0  0  0  0  0  0
   39.8659   44.5392  -15.5803 O   0  0  0  0  0  0  0  0  0  0  0  0
   38.5041   37.4062  -13.7549 C   0  0  2  0  0  0  0  0  0  0  0  0
   37.5288   37.1325  -14.7801 O   0  0  0  0  0  0  0  0  0  0  0  0
   34.1366   37.4083  -14.2183 C   0  0  2  0  0  0  0  0  0  0  0  0
   34.2044   38.4970  -13.2829 O   0  0  0  0  0  0  0  0  0  0  0  0
   37.2500   39.5329  -10.4922 C   0  0  0  0  0  0  0  0  0  0  0  0
   35.9192   39.2061  -10.0857 O   0  0  0  0  0  0  0  0  0  0  0  0
   40.6302   42.5925  -14.3369 C   0  0  1  0  0  0  0  0  0  0  0  0
   39.3564   41.9602  -14.5539 O   0  0  0  0  0  0  0  0  0  0  0  0
   39.2961   38.6674  -14.1093 C   0  0  0  0  0  0  0  0  0  0  0  0
   40.0593   39.1289  -12.9408 O   0  0  0  0  0  0  0  0  0  0  0  0
   32.7118   37.2800  -14.7700 C   0  0  1  0  0  0  0  0  0  0  0  0
   32.3579   38.4629  -15.4901 O   0  0  0  0  0  0  0  0  0  0  0  0
   41.6041   42.1423  -15.4265 C   0  0  0  0  0  0  0  0  0  0  0  0
   42.9662   42.5518  -15.0571 N   0  0  0  0  0  0  0  0  0  0  0  0
  1  2  1  1  0  0  0
  1  7  1  0  0  0  0
  1 30  1  0  0  0  0
  3  4  1  1  0  0  0
  3  9  1  0  0  0  0
  3 39  1  0  0  0  0
  5 10  1  0  0  0  0
  5 26  1  0  0  0  0
  5 32  1  1  0  0  0
  6 12  1  0  0  0  0
  6 36  1  0  0  0  0
  6 19  1  6  0  0  0
  7  8  1  1  0  0  0
  7 14  1  0  0  0  0
  9 16  1  0  0  0  0
 10 11  1  6  0  0  0
 10 18  1  0  0  0  0
 12 13  1  6  0  0  0
 12 20  1  0  0  0  0
 14 15  1  6  0  0  0
 14 22  1  0  0  0  0
 16 17  1  1  0  0  0
 16 24  1  0  0  0  0
 18 19  1  6  0  0  0
 18 25  1  0  0  0  0
 20 21  1  1  0  0  0
 20 27  1  0  0  0  0
 22 23  1  1  0  0  0
 22 29  1  0  0  0  0
 24  2  1  6  0  0  0
 24 31  1  0  0  0  0
 25 26  1  0  0  0  0
 25 33  1  1  0  0  0
 27 28  1  6  0  0  0
 27 35  1  0  0  0  0
 29 30  1  0  0  0  0
 29 37  1  6  0  0  0
 31 32  1  1  0  0  0
 31 39  1  0  0  0  0
 33 34  1  0  0  0  0
 35 36  1  0  0  0  0
 35 41  1  6  0  0  0
 37 38  1  0  0  0  0
 39 40  1  6  0  0  0
 41 42  1  0  0  0  0
M  END
>  <CHROM.1>
-123.01363691,164.63581076,-90.99551489,164.20585726,52.85115041,76.39446114
-73.20939337,96.52325905,71.60460874,37.13928358,38.94610546,-13.72590166
-2.17138226,-0.08393715,-0.00440079

>  <Name>
3c44_lig

>  <RI>
0

>  <Rbt.Current_Directory>
/home/itssahil/PROJECTS/Mol_Feturizer/New_Systems/rnas/3c44

>  <Rbt.Executable>
rbdock ($Id: //depot/dev/client3/rdock/2013.1/src/exe/rbdock.cxx#4 $)

>  <Rbt.Library>
libRbt.so (2013.1, Build901 2013/11/27)

>  <Rbt.Parameter_File>
/export/apps/rDock/src/rDock_2013.1_src/data/scripts/dock_solv.prm

>  <Rbt.Receptor>
prm/pocket_docking_2.prm

>  <SCORE>
-1.47486

>  <SCORE.INTER>
-9.93923

>  <SCORE.INTER.CONST>
1

>  <SCORE.INTER.POLAR>
-1.3411

>  <SCORE.INTER.ROT>
9

>  <SCORE.INTER.SOLV>
17.2807

>  <SCORE.INTER.VDW>
-17.516

>  <SCORE.INTER.norm>
-0.236648

>  <SCORE.INTRA>
6.64387

>  <SCORE.INTRA.DIHEDRAL>
5.73159

>  <SCORE.INTRA.DIHEDRAL.0>
14.8538

>  <SCORE.INTRA.POLAR>
0

>  <SCORE.INTRA.POLAR.0>
0

>  <SCORE.INTRA.REPUL>
0

>  <SCORE.INTRA.REPUL.0>
0

>  <SCORE.INTRA.SOLV>
1.97272

>  <SCORE.INTRA.SOLV.lig_0>
-100.951

>  <SCORE.INTRA.VDW>
2.79171

>  <SCORE.INTRA.VDW.0>
-5.71388

>  <SCORE.INTRA.norm>
0.158187

>  <SCORE.RESTR>
1.8205

>  <SCORE.RESTR.CAVITY>
1.8205

>  <SCORE.RESTR.norm>
0.0433453

>  <SCORE.SYSTEM>
0

>  <SCORE.SYSTEM.CONST>
0

>  <SCORE.SYSTEM.DIHEDRAL>
0

>  <SCORE.SYSTEM.SOLV>
0

>  <SCORE.SYSTEM.norm>
0

>  <SCORE.heavy>
42

>  <SCORE.norm>
-0.0351156

>  <RMSD>
3.177

$$$$
3c44_lig
 OpenBabel11021811463D
libRbt.so/2013.1/901 2013/11/27
 42 45  0  0  0  0  0  0  0  0999 V2000
   37.1974   35.8265  -12.3461 C   0  0  2  0  0  0  0  0  0  0  0  0
   36.4389   36.5081  -13.3570 O   0  0  0  0  0  0  0  0  0  0  0  0
   32.7749   35.6958  -15.1190 C   0  0  2  0  0  0  0  0  0  0  0  0
   31.4097   35.3537  -15.5469 N   0  0  0  0  0  0  0  0  0  0  0  0
   35.3429   39.2915  -12.9741 C   0  0  1  0  0  0  0  0  0  0  0  0
   38.3533   42.1021  -13.7321 C   0  0  1  0  0  0  0  0  0  0  0  0
   38.3240   36.7447  -11.8608 C   0  0  2  0  0  0  0  0  0  0  0  0
   37.7889   38.0384  -11.4123 N   0  0  0  0  0  0  0  0  0  0  0  0
   33.4234   34.5158  -14.3895 C   0  0  0  0  0  0  0  0  0  0  0  0
   34.9699   40.5612  -13.7408 C   0  0  2  0  0  0  0  0  0  0  0  0
   35.0845   40.3338  -15.1468 O   0  0  0  0  0  0  0  0  0  0  0  0
   38.6011   42.8366  -15.0538 C   0  0  2  0  0  0  0  0  0  0  0  0
   38.9244   41.8386  -16.0827 N   0  0  0  0  0  0  0  0  0  0  0  0
   39.3585   36.9868  -12.9627 C   0  0  1  0  0  0  0  0  0  0  0  0
   40.4646   37.7138  -12.4192 O   0  0  0  0  0  0  0  0  0  0  0  0
   34.8850   34.8843  -14.1135 C   0  0  2  0  0  0  0  0  0  0  0  0
   35.5262   33.7977  -13.3578 N   0  0  0  0  0  0  0  0  0  0  0  0
   36.1101   41.4747  -13.2953 C   0  0  2  0  0  0  0  0  0  0  0  0
   37.3458   41.0931  -13.9218 O   0  0  0  0  0  0  0  0  0  0  0  0
   39.7733   43.8187  -14.9302 C   0  0  1  0  0  0  0  0  0  0  0  0
   39.4073   44.9324  -14.1113 O   0  0  0  0  0  0  0  0  0  0  0  0
   39.8496   35.6481  -13.5169 C   0  0  2  0  0  0  0  0  0  0  0  0
   40.7316   35.8787  -14.6186 O   0  0  0  0  0  0  0  0  0  0  0  0
   35.0361   36.1916  -13.3256 C   0  0  2  0  0  0  0  0  0  0  0  0
   36.1679   41.1426  -11.8125 C   0  0  2  0  0  0  0  0  0  0  0  0
   35.7250   39.7753  -11.6731 O   0  0  0  0  0  0  0  0  0  0  0  0
   40.9979   43.1385  -14.3159 C   0  0  2  0  0  0  0  0  0  0  0  0
   41.5000   42.1687  -15.2399 O   0  0  0  0  0  0  0  0  0  0  0  0
   38.6529   34.8161  -13.9806 C   0  0  2  0  0  0  0  0  0  0  0  0
   37.7390   34.6066  -12.8861 O   0  0  0  0  0  0  0  0  0  0  0  0
   34.2128   37.3544  -13.8757 C   0  0  2  0  0  0  0  0  0  0  0  0
   34.1979   38.4231  -12.9153 O   0  0  0  0  0  0  0  0  0  0  0  0
   35.2553   42.0977  -11.0402 C   0  0  0  0  0  0  0  0  0  0  0  0
   35.5249   41.9735   -9.6420 O   0  0  0  0  0  0  0  0  0  0  0  0
   40.5873   42.4646  -13.0040 C   0  0  1  0  0  0  0  0  0  0  0  0
   39.5742   41.4852  -13.2935 O   0  0  0  0  0  0  0  0  0  0  0  0
   39.1879   33.4717  -14.4804 C   0  0  0  0  0  0  0  0  0  0  0  0
   39.7646   32.7111  -13.3624 O   0  0  0  0  0  0  0  0  0  0  0  0
   32.7786   36.9111  -14.1882 C   0  0  1  0  0  0  0  0  0  0  0  0
   32.0526   37.9886  -14.7839 O   0  0  0  0  0  0  0  0  0  0  0  0
   41.7653   41.7765  -12.3132 C   0  0  0  0  0  0  0  0  0  0  0  0
   41.2926   41.1283  -11.0819 N   0  0  0  0  0  0  0  0  0  0  0  0
  1  2  1  6  0  0  0
  1  7  1  0  0  0  0
  1 30  1  0  0  0  0
  3  4  1  1  0  0  0
  3  9  1  0  0  0  0
  3 39  1  0  0  0  0
  5 10  1  0  0  0  0
  5 26  1  0  0  0  0
  5 32  1  1  0  0  0
  6 12  1  0  0  0  0
  6 36  1  0  0  0  0
  6 19  1  6  0  0  0
  7  8  1  6  0  0  0
  7 14  1  0  0  0  0
  9 16  1  0  0  0  0
 10 11  1  6  0  0  0
 10 18  1  0  0  0  0
 12 13  1  6  0  0  0
 12 20  1  0  0  0  0
 14 15  1  1  0  0  0
 14 22  1  0  0  0  0
 16 17  1  1  0  0  0
 16 24  1  0  0  0  0
 18 19  1  6  0  0  0
 18 25  1  0  0  0  0
 20 21  1  1  0  0  0
 20 27  1  0  0  0  0
 22 23  1  6  0  0  0
 22 29  1  0  0  0  0
 24  2  1  6  0  0  0
 24 31  1  0  0  0  0
 25 26  1  0  0  0  0
 25 33  1  1  0  0  0
 27 28  1  6  0  0  0
 27 35  1  0  0  0  0
 29 30  1  0  0  0  0
 29 37  1  1  0  0  0
 31 32  1  1  0  0  0
 31 39  1  0  0  0  0
 33 34  1  0  0  0  0
 35 36  1  0  0  0  0
 35 41  1  6  0  0  0
 37 38  1  0  0  0  0
 39 40  1  6  0  0  0
 41 42  1  0  0  0  0
M  END
>  <CHROM.1>
-145.19559080,100.00336003,-107.71091102,167.96833216,-83.59365328,-167.84917533
66.27291586,83.87719442,-178.72393451,37.26035400,38.71061865,-13.45013048
-2.10969581,-0.04272577,0.03038020

>  <Name>
3c44_lig

>  <RI>
224

>  <Rbt.Current_Directory>
/home/itssahil/PROJECTS/Mol_Feturizer/New_Systems/rnas/3c44

>  <Rbt.Executable>
rbdock ($Id: //depot/dev/client3/rdock/2013.1/src/exe/rbdock.cxx#4 $)

>  <Rbt.Library>
libRbt.so (2013.1, Build901 2013/11/27)

>  <Rbt.Parameter_File>
/export/apps/rDock/src/rDock_2013.1_src/data/scripts/dock_solv.prm

>  <Rbt.Receptor>
prm/pocket_docking_3.prm

>  <SCORE>
-12.8798

>  <SCORE.INTER>
-19.2151

>  <SCORE.INTER.CONST>
1

>  <SCORE.INTER.POLAR>
-1.34799

>  <SCORE.INTER.ROT>
9

>  <SCORE.INTER.SOLV>
14.7553

>  <SCORE.INTER.VDW>
-22.8352

>  <SCORE.INTER.norm>
-0.457502

>  <SCORE.INTRA>
6.03047

>  <SCORE.INTRA.DIHEDRAL>
7.99173

>  <SCORE.INTRA.DIHEDRAL.0>
14.8538

>  <SCORE.INTRA.POLAR>
0

>  <SCORE.INTRA.POLAR.0>
0

>  <SCORE.INTRA.REPUL>
0

>  <SCORE.INTRA.REPUL.0>
0

>  <SCORE.INTRA.SOLV>
1.0304

>  <SCORE.INTRA.SOLV.lig_0>
-100.951

>  <SCORE.INTRA.VDW>
1.5194

>  <SCORE.INTRA.VDW.0>
-5.71388

>  <SCORE.INTRA.norm>
0.143583

>  <SCORE.RESTR>
0.304788

>  <SCORE.RESTR.CAVITY>
0.304788

>  <SCORE.RESTR.norm>
0.00725685

>  <SCORE.SYSTEM>
0

>  <SCORE.SYSTEM.CONST>
0

>  <SCORE.SYSTEM.DIHEDRAL>
0

>  <SCORE.SYSTEM.SOLV>
0

>  <SCORE.SYSTEM.norm>
0

>  <SCORE.heavy>
42

>  <SCORE.norm>
-0.306662

>  <RMSD>
3.230

$$$$
3c44_lig
 OpenBabel11021811463D
libRbt.so/2013.1/901 2013/11/27
 42 45  0  0  0  0  0  0  0  0999 V2000
   36.9902   35.3547  -12.6669 C   0  0  2  0  0  0  0  0  0  0  0  0
   36.2548   36.3319  -13.4193 O   0  0  0  0  0  0  0  0  0  0  0  0
   32.5771   35.6831  -15.2202 C   0  0  2  0  0  0  0  0  0  0  0  0
   31.2001   35.4124  -15.6611 N   0  0  0  0  0  0  0  0  0  0  0  0
   35.3585   39.1699  -13.1524 C   0  0  1  0  0  0  0  0  0  0  0  0
   38.3674   42.1015  -13.7388 C   0  0  1  0  0  0  0  0  0  0  0  0
   37.9548   36.0747  -11.7187 C   0  0  2  0  0  0  0  0  0  0  0  0
   37.2362   37.0387  -10.8730 N   0  0  0  0  0  0  0  0  0  0  0  0
   33.1322   34.4975  -14.4256 C   0  0  0  0  0  0  0  0  0  0  0  0
   35.0171   40.6589  -13.2252 C   0  0  2  0  0  0  0  0  0  0  0  0
   34.7502   41.0330  -14.5782 O   0  0  0  0  0  0  0  0  0  0  0  0
   38.8334   42.5277  -15.1349 C   0  0  2  0  0  0  0  0  0  0  0  0
   39.2254   41.3225  -15.8785 N   0  0  0  0  0  0  0  0  0  0  0  0
   39.0518   36.8097  -12.4931 C   0  0  1  0  0  0  0  0  0  0  0  0
   40.0126   37.3302  -11.5695 O   0  0  0  0  0  0  0  0  0  0  0  0
   34.6099   34.7811  -14.1355 C   0  0  2  0  0  0  0  0  0  0  0  0
   35.1634   33.6903  -13.3191 N   0  0  0  0  0  0  0  0  0  0  0  0
   36.3612   41.2515  -12.8067 C   0  0  2  0  0  0  0  0  0  0  0  0
   37.3317   41.1104  -13.8570 O   0  0  0  0  0  0  0  0  0  0  0  0
   40.0391   43.4730  -15.0516 C   0  0  1  0  0  0  0  0  0  0  0  0
   39.6397   44.7477  -14.5413 O   0  0  0  0  0  0  0  0  0  0  0  0
   39.7417   35.8440  -13.4584 C   0  0  2  0  0  0  0  0  0  0  0  0
   40.6891   36.5581  -14.2569 O   0  0  0  0  0  0  0  0  0  0  0  0
   34.8337   36.1102  -13.4034 C   0  0  2  0  0  0  0  0  0  0  0  0
   36.7230   40.3298  -11.6527 C   0  0  2  0  0  0  0  0  0  0  0  0
   36.1160   39.0501  -11.9341 O   0  0  0  0  0  0  0  0  0  0  0  0
   41.1263   42.8982  -14.1422 C   0  0  2  0  0  0  0  0  0  0  0  0
   41.6832   41.7369  -14.7646 O   0  0  0  0  0  0  0  0  0  0  0  0
   38.6959   35.1893  -14.3623 C   0  0  2  0  0  0  0  0  0  0  0  0
   37.7153   34.4952  -13.5662 O   0  0  0  0  0  0  0  0  0  0  0  0
   34.0999   37.2983  -14.0217 C   0  0  2  0  0  0  0  0  0  0  0  0
   34.1391   38.4084  -13.1102 O   0  0  0  0  0  0  0  0  0  0  0  0
   36.1880   40.9164  -10.3446 C   0  0  0  0  0  0  0  0  0  0  0  0
   34.9061   41.5014  -10.5844 O   0  0  0  0  0  0  0  0  0  0  0  0
   40.5045   42.5346  -12.7913 C   0  0  1  0  0  0  0  0  0  0  0  0
   39.4783   41.5512  -13.0130 O   0  0  0  0  0  0  0  0  0  0  0  0
   39.4250   34.1996  -15.2745 C   0  0  0  0  0  0  0  0  0  0  0  0
   38.5407   33.7780  -16.3705 O   0  0  0  0  0  0  0  0  0  0  0  0
   32.6452   36.9367  -14.3443 C   0  0  1  0  0  0  0  0  0  0  0  0
   32.0036   38.0313  -15.0024 O   0  0  0  0  0  0  0  0  0  0  0  0
   41.5351   41.9700  -11.8127 C   0  0  0  0  0  0  0  0  0  0  0  0
   40.9705   41.9807  -10.4560 N   0  0  0  0  0  0  0  0  0  0  0  0
  1  2  1  6  0  0  0
  1  7  1  0  0  0  0
  1 30  1  0  0  0  0
  3  4  1  1  0  0  0
  3  9  1  0  0  0  0
  3 39  1  0  0  0  0
  5 10  1  0  0  0  0
  5 26  1  0  0  0  0
  5 32  1  1  0  0  0
  6 12  1  0  0  0  0
  6 36  1  0  0  0  0
  6 19  1  6  0  0  0
  7  8  1  6  0  0  0
  7 14  1  0  0  0  0
  9 16  1  0  0  0  0
 10 11  1  6  0  0  0
 10 18  1  0  0  0  0
 12 13  1  6  0  0  0
 12 20  1  0  0  0  0
 14 15  1  1  0  0  0
 14 22  1  0  0  0  0
 16 17  1  1  0  0  0
 16 24  1  0  0  0  0
 18 19  1  6  0  0  0
 18 25  1  0  0  0  0
 20 21  1  1  0  0  0
 20 27  1  0  0  0  0
 22 23  1  6  0  0  0
 22 29  1  0  0  0  0
 24  2  1  6  0  0  0
 24 31  1  0  0  0  0
 25 26  1  0  0  0  0
 25 33  1  1  0  0  0
 27 28  1  6  0  0  0
 27 35  1  0  0  0  0
 29 30  1  0  0  0  0
 29 37  1  6  0  0  0
 31 32  1  1  0  0  0
 31 39  1  0  0  0  0
 33 34  1  0  0  0  0
 35 36  1  0  0  0  0
 35 41  1  1  0  0  0
 37 38  1  0  0  0  0
 39 40  1  6  0  0  0
 41 42  1  0  0  0  0
M  END
>  <CHROM.1>
-130.02914253,132.43051331,-145.37956107,155.82434285,-65.06747571,38.44538418
-166.58826924,81.93694864,165.03861493,37.17772616,38.62693196,-13.48314238
-2.20900711,-0.02569770,0.10209030

>  <Name>
3c44_lig

>  <RI>
224

>  <Rbt.Current_Directory>
/home/itssahil/PROJECTS/Mol_Feturizer/New_Systems/rnas/3c44

>  <Rbt.Executable>
rbdock ($Id: //depot/dev/client3/rdock/2013.1/src/exe/rbdock.cxx#4 $)

>  <Rbt.Library>
libRbt.so (2013.1, Build901 2013/11/27)

>  <Rbt.Parameter_File>
/export/apps/rDock/src/rDock_2013.1_src/data/scripts/dock_solv.prm

>  <Rbt.Receptor>
prm/pocket_docking_3.prm

>  <SCORE>
-6.33275

>  <SCORE.INTER>
-14.9446

>  <SCORE.INTER.CONST>
1

>  <SCORE.INTER.POLAR>
-1.57427

>  <SCORE.INTER.ROT>
9

>  <SCORE.INTER.SOLV>
17.624

>  <SCORE.INTER.VDW>
-20.1901

>  <SCORE.INTER.norm>
-0.355823

>  <SCORE.INTRA>
8.6118

>  <SCORE.INTRA.DIHEDRAL>
10.5556

>  <SCORE.INTRA.DIHEDRAL.0>
14.8538

>  <SCORE.INTRA.POLAR>
0

>  <SCORE.INTRA.POLAR.0>
0

>  <SCORE.INTRA.REPUL>
0

>  <SCORE.INTRA.REPUL.0>
0

>  <SCORE.INTRA.SOLV>
-0.43355

>  <SCORE.INTRA.SOLV.lig_0>
-100.951

>  <SCORE.INTRA.VDW>
3.55078

>  <SCORE.INTRA.VDW.0>
-5.71388

>  <SCORE.INTRA.norm>
0.205043

>  <SCORE.RESTR>
0

>  <SCORE.RESTR.CAVITY>
0

>  <SCORE.RESTR.norm>
0

>  <SCORE.SYSTEM>
0

>  <SCORE.SYSTEM.CONST>
0

>  <SCORE.SYSTEM.DIHEDRAL>
0

>  <SCORE.SYSTEM.SOLV>
0

>  <SCORE.SYSTEM.norm>
0

>  <SCORE.heavy>
42

>  <SCORE.norm>
-0.15078

>  <RMSD>
3.287

$$$$
3c44_lig
 OpenBabel11021811463D
libRbt.so/2013.1/901 2013/11/27
 42 45  0  0  0  0  0  0  0  0999 V2000
   35.5815   34.9239  -14.1040 C   0  0  2  0  0  0  0  0  0  0  0  0
   34.8017   35.8314  -13.3103 O   0  0  0  0  0  0  0  0  0  0  0  0
   32.6393   36.8400  -16.7010 C   0  0  2  0  0  0  0  0  0  0  0  0
   31.7053   37.2226  -17.7711 N   0  0  0  0  0  0  0  0  0  0  0  0
   35.4237   39.2540  -13.6497 C   0  0  1  0  0  0  0  0  0  0  0  0
   38.6195   42.0576  -13.3238 C   0  0  1  0  0  0  0  0  0  0  0  0
   36.7250   34.3668  -13.2497 C   0  0  2  0  0  0  0  0  0  0  0  0
   36.2086   33.7614  -12.0136 N   0  0  0  0  0  0  0  0  0  0  0  0
   32.0974   35.6432  -15.9141 C   0  0  0  0  0  0  0  0  0  0  0  0
   35.3561   40.5736  -12.8795 C   0  0  2  0  0  0  0  0  0  0  0  0
   34.9841   41.6348  -13.7610 O   0  0  0  0  0  0  0  0  0  0  0  0
   39.2528   42.6138  -14.6034 C   0  0  2  0  0  0  0  0  0  0  0  0
   39.7362   41.4833  -15.4081 N   0  0  0  0  0  0  0  0  0  0  0  0
   37.7329   35.4604  -12.8873 C   0  0  1  0  0  0  0  0  0  0  0  0
   38.8563   34.8665  -12.2294 O   0  0  0  0  0  0  0  0  0  0  0  0
   33.1833   35.2041  -14.9262 C   0  0  2  0  0  0  0  0  0  0  0  0
   32.6756   34.0927  -14.1077 N   0  0  0  0  0  0  0  0  0  0  0  0
   36.8301   40.7325  -12.5122 C   0  0  2  0  0  0  0  0  0  0  0  0
   37.6085   41.0930  -13.6651 O   0  0  0  0  0  0  0  0  0  0  0  0
   40.4368   43.5345  -14.2803 C   0  0  1  0  0  0  0  0  0  0  0  0
   39.9746   44.7571  -13.7001 O   0  0  0  0  0  0  0  0  0  0  0  0
   38.2024   36.1747  -14.1559 C   0  0  2  0  0  0  0  0  0  0  0  0
   39.0578   37.2655  -13.8045 O   0  0  0  0  0  0  0  0  0  0  0  0
   33.6419   36.3344  -13.9964 C   0  0  2  0  0  0  0  0  0  0  0  0
   37.1669   39.3094  -12.0958 C   0  0  2  0  0  0  0  0  0  0  0  0
   36.3023   38.4365  -12.8545 O   0  0  0  0  0  0  0  0  0  0  0  0
   41.4051   42.8630  -13.3052 C   0  0  2  0  0  0  0  0  0  0  0  0
   42.0371   41.7627  -13.9656 O   0  0  0  0  0  0  0  0  0  0  0  0
   36.9899   36.6988  -14.9269 C   0  0  2  0  0  0  0  0  0  0  0  0
   36.1026   35.6119  -15.2565 O   0  0  0  0  0  0  0  0  0  0  0  0
   33.9698   37.6424  -14.7135 C   0  0  2  0  0  0  0  0  0  0  0  0
   34.1016   38.6958  -13.7451 O   0  0  0  0  0  0  0  0  0  0  0  0
   36.9292   39.1481  -10.5928 C   0  0  0  0  0  0  0  0  0  0  0  0
   36.8954   37.7558  -10.2717 O   0  0  0  0  0  0  0  0  0  0  0  0
   40.6225   42.3751  -12.0831 C   0  0  1  0  0  0  0  0  0  0  0  0
   39.6338   41.4282  -12.5248 O   0  0  0  0  0  0  0  0  0  0  0  0
   37.5047   37.3609  -16.2075 C   0  0  0  0  0  0  0  0  0  0  0  0
   36.4190   38.1049  -16.8623 O   0  0  0  0  0  0  0  0  0  0  0  0
   32.8786   37.9989  -15.7299 C   0  0  1  0  0  0  0  0  0  0  0  0
   33.2481   39.1762  -16.4513 O   0  0  0  0  0  0  0  0  0  0  0  0
   41.5261   41.7075  -11.0457 C   0  0  0  0  0  0  0  0  0  0  0  0
   40.7240   41.3397   -9.8706 N   0  0  0  0  0  0  0  0  0  0  0  0
  1  2  1  1  0  0  0
  1  7  1  0  0  0  0
  1 30  1  0  0  0  0
  3  4  1  6  0  0  0
  3  9  1  0  0  0  0
  3 39  1  0  0  0  0
  5 10  1  0  0  0  0
  5 26  1  0  0  0  0
  5 32  1  1  0  0  0
  6 12  1  0  0  0  0
  6 36  1  0  0  0  0
  6 19  1  6  0  0  0
  7  8  1  1  0  0  0
  7 14  1  0  0  0  0
  9 16  1  0  0  0  0
 10 11  1  6  0  0  0
 10 18  1  0  0  0  0
 12 13  1  6  0  0  0
 12 20  1  0  0  0  0
 14 15  1  6  0  0  0
 14 22  1  0  0  0  0
 16 17  1  1  0  0  0
 16 24  1  0  0  0  0
 18 19  1  6  0  0  0
 18 25  1  0  0  0  0
 20 21  1  1  0  0  0
 20 27  1  0  0  0  0
 22 23  1  1  0  0  0
 22 29  1  0  0  0  0
 24  2  1  6  0  0  0
 24 31  1  0  0  0  0
 25 26  1  0  0  0  0
 25 33  1  1  0  0  0
 27 28  1  6  0  0  0
 27 35  1  0  0  0  0
 29 30  1  0  0  0  0
 29 37  1  6  0  0  0
 31 32  1  1  0  0  0
 31 39  1  0  0  0  0
 33 34  1  0  0  0  0
 35 36  1  0  0  0  0
 35 41  1  1  0  0  0
 37 38  1  0  0  0  0
 39 40  1  6  0  0  0
 41 42  1  0  0  0  0
M  END
>  <CHROM.1>
-175.69006688,165.37398840,-169.48350760,140.95225304,32.39647186,164.60454747
-169.26758528,114.89923065,176.59194979,36.82472884,38.66291215,-13.79076327
-2.52300683,-0.57502953,-0.33990938

>  <Name>
3c44_lig

>  <RI>
0

>  <Rbt.Current_Directory>
/home/itssahil/PROJECTS/Mol_Feturizer/New_Systems/rnas/3c44

>  <Rbt.Executable>
rbdock ($Id: //depot/dev/client3/rdock/2013.1/src/exe/rbdock.cxx#4 $)

>  <Rbt.Library>
libRbt.so (2013.1, Build901 2013/11/27)

>  <Rbt.Parameter_File>
/export/apps/rDock/src/rDock_2013.1_src/data/scripts/dock_solv.prm

>  <Rbt.Receptor>
prm/pocket_docking_5.prm

>  <SCORE>
-13.1779

>  <SCORE.INTER>
-16.0554

>  <SCORE.INTER.CONST>
1

>  <SCORE.INTER.POLAR>
-2.95582

>  <SCORE.INTER.ROT>
9

>  <SCORE.INTER.SOLV>
16.0911

>  <SCORE.INTER.VDW>
-15.8146

>  <SCORE.INTER.norm>
-0.382271

>  <SCORE.INTRA>
2.87744

>  <SCORE.INTRA.DIHEDRAL>
3.44261

>  <SCORE.INTRA.DIHEDRAL.0>
14.8538

>  <SCORE.INTRA.POLAR>
0

>  <SCORE.INTRA.POLAR.0>
0

>  <SCORE.INTRA.REPUL>
0.00809895

>  <SCORE.INTRA.REPUL.0>
0

>  <SCORE.INTRA.SOLV>
-2.19664

>  <SCORE.INTRA.SOLV.lig_0>
-100.951

>  <SCORE.INTRA.VDW>
2.21397

>  <SCORE.INTRA.VDW.0>
-5.71388

>  <SCORE.INTRA.norm>
0.0685106

>  <SCORE.RESTR>
0

>  <SCORE.RESTR.CAVITY>
0

>  <SCORE.RESTR.norm>
0

>  <SCORE.SYSTEM>
0

>  <SCORE.SYSTEM.CONST>
0

>  <SCORE.SYSTEM.DIHEDRAL>
0

>  <SCORE.SYSTEM.SOLV>
0

>  <SCORE.SYSTEM.norm>
0

>  <SCORE.heavy>
42

>  <SCORE.norm>
-0.313761

>  <RMSD>
3.346

$$$$
3c44_lig
 OpenBabel11021811463D
libRbt.so/2013.1/901 2013/11/27
 42 45  0  0  0  0  0  0  0  0999 V2000
   36.2650   35.9761  -12.1706 C   0  0  2  0  0  0  0  0  0  0  0  0
   35.8943   36.5035  -13.4536 O   0  0  0  0  0  0  0  0  0  0  0  0
   32.4857   36.1190  -15.7824 C   0  0  2  0  0  0  0  0  0  0  0  0
   31.1677   35.9951  -16.4239 N   0  0  0  0  0  0  0  0  0  0  0  0
   35.5260   39.4917  -13.9251 C   0  0  1  0  0  0  0  0  0  0  0  0
   39.3331   40.8746  -14.2017 C   0  0  1  0  0  0  0  0  0  0  0  0
   37.5423   36.6744  -11.6921 C   0  0  2  0  0  0  0  0  0  0  0  0
   37.3729   38.1346  -11.6931 N   0  0  0  0  0  0  0  0  0  0  0  0
   32.6663   35.0425  -14.7083 C   0  0  0  0  0  0  0  0  0  0  0  0
   36.1931   39.1703  -15.2632 C   0  0  2  0  0  0  0  0  0  0  0  0
   36.7734   37.8653  -15.2186 O   0  0  0  0  0  0  0  0  0  0  0  0
   40.5801   40.3154  -13.5088 C   0  0  2  0  0  0  0  0  0  0  0  0
   40.1716   39.7331  -12.2230 N   0  0  0  0  0  0  0  0  0  0  0  0
   38.7396   36.3095  -12.5732 C   0  0  1  0  0  0  0  0  0  0  0  0
   39.9313   36.8539  -11.9978 O   0  0  0  0  0  0  0  0  0  0  0  0
   34.1077   35.1321  -14.1958 C   0  0  2  0  0  0  0  0  0  0  0  0
   34.3021   34.1518  -13.1168 N   0  0  0  0  0  0  0  0  0  0  0  0
   37.3136   40.2082  -15.2475 C   0  0  2  0  0  0  0  0  0  0  0  0
   38.3344   39.8444  -14.3038 O   0  0  0  0  0  0  0  0  0  0  0  0
   41.6111   41.4211  -13.2471 C   0  0  1  0  0  0  0  0  0  0  0  0
   42.2024   41.8531  -14.4754 O   0  0  0  0  0  0  0  0  0  0  0  0
   38.8680   34.7883  -12.6707 C   0  0  2  0  0  0  0  0  0  0  0  0
   39.9181   34.4521  -13.5814 O   0  0  0  0  0  0  0  0  0  0  0  0
   34.4724   36.5260  -13.6699 C   0  0  2  0  0  0  0  0  0  0  0  0
   36.5578   41.4243  -14.7357 C   0  0  2  0  0  0  0  0  0  0  0  0
   35.4932   40.9306  -13.8941 O   0  0  0  0  0  0  0  0  0  0  0  0
   40.9630   42.6261  -12.5632 C   0  0  2  0  0  0  0  0  0  0  0  0
   40.5675   42.2496  -11.2411 O   0  0  0  0  0  0  0  0  0  0  0  0
   37.5481   34.1938  -13.1645 C   0  0  2  0  0  0  0  0  0  0  0  0
   36.4754   34.5554  -12.2725 O   0  0  0  0  0  0  0  0  0  0  0  0
   34.0919   37.6697  -14.6079 C   0  0  2  0  0  0  0  0  0  0  0  0
   34.2070   38.9185  -13.9065 O   0  0  0  0  0  0  0  0  0  0  0  0
   35.9999   42.2142  -15.9216 C   0  0  0  0  0  0  0  0  0  0  0  0
   36.8924   42.0853  -17.0305 O   0  0  0  0  0  0  0  0  0  0  0  0
   39.7458   43.0671  -13.3803 C   0  0  1  0  0  0  0  0  0  0  0  0
   38.8139   41.9726  -13.4347 O   0  0  0  0  0  0  0  0  0  0  0  0
   37.7088   32.6718  -13.1998 C   0  0  0  0  0  0  0  0  0  0  0  0
   37.9671   32.1603  -11.8461 O   0  0  0  0  0  0  0  0  0  0  0  0
   32.6625   37.4944  -15.1343 C   0  0  1  0  0  0  0  0  0  0  0  0
   32.3591   38.5247  -16.0774 O   0  0  0  0  0  0  0  0  0  0  0  0
   39.0508   44.2858  -12.7718 C   0  0  0  0  0  0  0  0  0  0  0  0
   39.8954   45.4723  -12.9677 N   0  0  0  0  0  0  0  0  0  0  0  0
  1  2  1  6  0  0  0
  1  7  1  0  0  0  0
  1 30  1  0  0  0  0
  3  4  1  1  0  0  0
  3  9  1  0  0  0  0
  3 39  1  0  0  0  0
  5 10  1  0  0  0  0
  5 26  1  0  0  0  0
  5 32  1  6  0  0  0
  6 12  1  0  0  0  0
  6 36  1  0  0  0  0
  6 19  1  1  0  0  0
  7  8  1  6  0  0  0
  7 14  1  0  0  0  0
  9 16  1  0  0  0  0
 10 11  1  1  0  0  0
 10 18  1  0  0  0  0
 12 13  1  1  0  0  0
 12 20  1  0  0  0  0
 14 15  1  1  0  0  0
 14 22  1  0  0  0  0
 16 17  1  1  0  0  0
 16 24  1  0  0  0  0
 18 19  1  1  0  0  0
 18 25  1  0  0  0  0
 20 21  1  6  0  0  0
 20 27  1  0  0  0  0
 22 23  1  6  0  0  0
 22 29  1  0  0  0  0
 24  2  1  6  0  0  0
 24 31  1  0  0  0  0
 25 26  1  0  0  0  0
 25 33  1  6  0  0  0
 27 28  1  1  0  0  0
 27 35  1  0  0  0  0
 29 30  1  0  0  0  0
 29 37  1  1  0  0  0
 31 32  1  1  0  0  0
 31 39  1  0  0  0  0
 33 34  1  0  0  0  0
 35 36  1  0  0  0  0
 35 41  1  1  0  0  0
 37 38  1  0  0  0  0
 39 40  1  6  0  0  0
 41 42  1  0  0  0  0
M  END
>  <CHROM.1>
-147.80688660,34.34829458,-164.43917973,-175.02472920,-85.21214738,-32.36028281
62.17604936,86.06472262,71.46629657,37.13523163,38.47802114,-13.74987276
-2.22355746,-0.40295930,-0.22711474

>  <Name>
3c44_lig

>  <RI>
224

>  <Rbt.Current_Directory>
/home/itssahil/PROJECTS/Mol_Feturizer/New_Systems/rnas/3c44

>  <Rbt.Executable>
rbdock ($Id: //depot/dev/client3/rdock/2013.1/src/exe/rbdock.cxx#4 $)

>  <Rbt.Library>
libRbt.so (2013.1, Build901 2013/11/27)

>  <Rbt.Parameter_File>
/export/apps/rDock/src/rDock_2013.1_src/data/scripts/dock_solv.prm

>  <Rbt.Receptor>
prm/pocket_docking_3.prm

>  <SCORE>
-5.62399

>  <SCORE.INTER>
-16.1954

>  <SCORE.INTER.CONST>
1

>  <SCORE.INTER.POLAR>
-1.90341

>  <SCORE.INTER.ROT>
9

>  <SCORE.INTER.SOLV>
14.0745

>  <SCORE.INTER.VDW>
-18.7437

>  <SCORE.INTER.norm>
-0.385604

>  <SCORE.INTRA>
10.4228

>  <SCORE.INTRA.DIHEDRAL>
1.89788

>  <SCORE.INTRA.DIHEDRAL.0>
14.8538

>  <SCORE.INTRA.POLAR>
0

>  <SCORE.INTRA.POLAR.0>
0

>  <SCORE.INTRA.REPUL>
0.0981478

>  <SCORE.INTRA.REPUL.0>
0

>  <SCORE.INTRA.SOLV>
5.14066

>  <SCORE.INTRA.SOLV.lig_0>
-100.951

>  <SCORE.INTRA.VDW>
6.41276

>  <SCORE.INTRA.VDW.0>
-5.71388

>  <SCORE.INTRA.norm>
0.248161

>  <SCORE.RESTR>
0.148614

>  <SCORE.RESTR.CAVITY>
0.148614

>  <SCORE.RESTR.norm>
0.00353842

>  <SCORE.SYSTEM>
0

>  <SCORE.SYSTEM.CONST>
0

>  <SCORE.SYSTEM.DIHEDRAL>
0

>  <SCORE.SYSTEM.SOLV>
0

>  <SCORE.SYSTEM.norm>
0

>  <SCORE.heavy>
42

>  <SCORE.norm>
-0.133905

>  <RMSD>
3.415

$$$$
3c44_lig
 OpenBabel11021811463D
libRbt.so/2013.1/901 2013/11/27
 42 45  0  0  0  0  0  0  0  0999 V2000
   35.4501   34.7957  -14.1464 C   0  0  2  0  0  0  0  0  0  0  0  0
   34.6600   35.6913  -13.3492 O   0  0  0  0  0  0  0  0  0  0  0  0
   32.5661   36.7480  -16.7680 C   0  0  2  0  0  0  0  0  0  0  0  0
   31.6555   37.1526  -17.8502 N   0  0  0  0  0  0  0  0  0  0  0  0
   35.2357   39.3602  -13.9568 C   0  0  1  0  0  0  0  0  0  0  0  0
   38.3844   41.9871  -14.2777 C   0  0  1  0  0  0  0  0  0  0  0  0
   36.6332   34.2938  -13.3121 C   0  0  2  0  0  0  0  0  0  0  0  0
   36.1693   33.6948  -12.0523 N   0  0  0  0  0  0  0  0  0  0  0  0
   31.9827   35.5686  -15.9846 C   0  0  0  0  0  0  0  0  0  0  0  0
   35.1126   40.6295  -13.1126 C   0  0  2  0  0  0  0  0  0  0  0  0
   34.3761   41.6227  -13.8288 O   0  0  0  0  0  0  0  0  0  0  0  0
   38.5083   43.2315  -13.3923 C   0  0  2  0  0  0  0  0  0  0  0  0
   37.5783   44.2512  -13.8967 N   0  0  0  0  0  0  0  0  0  0  0  0
   37.6120   35.4274  -12.9957 C   0  0  1  0  0  0  0  0  0  0  0  0
   38.7713   34.8843  -12.3566 O   0  0  0  0  0  0  0  0  0  0  0  0
   33.0445   35.1032  -14.9826 C   0  0  2  0  0  0  0  0  0  0  0  0
   32.4973   34.0082  -14.1674 N   0  0  0  0  0  0  0  0  0  0  0  0
   36.5808   41.0472  -13.0609 C   0  0  2  0  0  0  0  0  0  0  0  0
   37.0097   41.5668  -14.3303 O   0  0  0  0  0  0  0  0  0  0  0  0
   39.9336   43.7983  -13.4302 C   0  0  1  0  0  0  0  0  0  0  0  0
   40.8346   42.9303  -12.7375 O   0  0  0  0  0  0  0  0  0  0  0  0
   38.0245   36.1330  -14.2889 C   0  0  2  0  0  0  0  0  0  0  0  0
   38.8508   37.2585  -13.9795 O   0  0  0  0  0  0  0  0  0  0  0  0
   33.5224   36.2234  -14.0504 C   0  0  2  0  0  0  0  0  0  0  0  0
   37.2432   39.7014  -12.8122 C   0  0  2  0  0  0  0  0  0  0  0  0
   36.3969   38.7008  -13.4187 O   0  0  0  0  0  0  0  0  0  0  0  0
   40.4209   43.9644  -14.8705 C   0  0  2  0  0  0  0  0  0  0  0  0
   39.6579   44.9975  -15.5003 O   0  0  0  0  0  0  0  0  0  0  0  0
   36.7756   36.6012  -15.0374 C   0  0  2  0  0  0  0  0  0  0  0  0
   35.9180   35.4790  -15.3242 O   0  0  0  0  0  0  0  0  0  0  0  0
   33.8941   37.5200  -14.7669 C   0  0  2  0  0  0  0  0  0  0  0  0
   34.0428   38.5723  -13.7997 O   0  0  0  0  0  0  0  0  0  0  0  0
   37.3761   39.4692  -11.3055 C   0  0  0  0  0  0  0  0  0  0  0  0
   38.2300   40.4726  -10.7515 O   0  0  0  0  0  0  0  0  0  0  0  0
   40.2404   42.6379  -15.6132 C   0  0  1  0  0  0  0  0  0  0  0  0
   38.8427   42.2977  -15.6031 O   0  0  0  0  0  0  0  0  0  0  0  0
   37.2349   37.2559  -16.3427 C   0  0  0  0  0  0  0  0  0  0  0  0
   37.9235   38.5228  -16.0567 O   0  0  0  0  0  0  0  0  0  0  0  0
   32.8250   37.9029  -15.7971 C   0  0  1  0  0  0  0  0  0  0  0  0
   33.2348   39.0677  -16.5172 O   0  0  0  0  0  0  0  0  0  0  0  0
   40.7260   42.7145  -17.0613 C   0  0  0  0  0  0  0  0  0  0  0  0
   40.5842   41.3936  -17.6896 N   0  0  0  0  0  0  0  0  0  0  0  0
  1  2  1  1  0  0  0
  1  7  1  0  0  0  0
  1 30  1  0  0  0  0
  3  4  1  6  0  0  0
  3  9  1  0  0  0  0
  3 39  1  0  0  0  0
  5 10  1  0  0  0  0
  5 26  1  0  0  0  0
  5 32  1  1  0  0  0
  6 12  1  0  0  0  0
  6 36  1  0  0  0  0
  6 19  1  6  0  0  0
  7  8  1  1  0  0  0
  7 14  1  0  0  0  0
  9 16  1  0  0  0  0
 10 11  1  6  0  0  0
 10 18  1  0  0  0  0
 12 13  1  6  0  0  0
 12 20  1  0  0  0  0
 14 15  1  6  0  0  0
 14 22  1  0  0  0  0
 16 17  1  1  0  0  0
 16 24  1  0  0  0  0
 18 19  1  6  0  0  0
 18 25  1  0  0  0  0
 20 21  1  1  0  0  0
 20 27  1  0  0  0  0
 22 23  1  1  0  0  0
 22 29  1  0  0  0  0
 24  2  1  6  0  0  0
 24 31  1  0  0  0  0
 25 26  1  0  0  0  0
 25 33  1  1  0  0  0
 27 28  1  6  0  0  0
 27 35  1  0  0  0  0
 29 30  1  0  0  0  0
 29 37  1  6  0  0  0
 31 32  1  1  0  0  0
 31 39  1  0  0  0  0
 33 34  1  0  0  0  0
 35 36  1  0  0  0  0
 35 41  1  6  0  0  0
 37 38  1  0  0  0  0
 39 40  1  6  0  0  0
 41 42  1  0  0  0  0
M  END
>  <CHROM.1>
179.74118949,166.22238100,-69.14503540,178.80277334,34.39232362,-62.84424136
-69.18848447,132.57369690,177.23292036,36.61183707,38.94877548,-14.38618225
-2.26286845,-0.44427794,-0.32475670

>  <Name>
3c44_lig

>  <RI>
0

>  <Rbt.Current_Directory>
/home/itssahil/PROJECTS/Mol_Feturizer/New_Systems/rnas/3c44

>  <Rbt.Executable>
rbdock ($Id: //depot/dev/client3/rdock/2013.1/src/exe/rbdock.cxx#4 $)

>  <Rbt.Library>
libRbt.so (2013.1, Build901 2013/11/27)

>  <Rbt.Parameter_File>
/export/apps/rDock/src/rDock_2013.1_src/data/scripts/dock_solv.prm

>  <Rbt.Receptor>
prm/pocket_docking_4.prm

>  <SCORE>
-9.01227

>  <SCORE.INTER>
-10.8483

>  <SCORE.INTER.CONST>
1

>  <SCORE.INTER.POLAR>
-2.10512

>  <SCORE.INTER.ROT>
9

>  <SCORE.INTER.SOLV>
16.8735

>  <SCORE.INTER.VDW>
-15.4396

>  <SCORE.INTER.norm>
-0.258294

>  <SCORE.INTRA>
1.83607

>  <SCORE.INTRA.DIHEDRAL>
-3.54387

>  <SCORE.INTRA.DIHEDRAL.0>
14.8538

>  <SCORE.INTRA.POLAR>
0

>  <SCORE.INTRA.POLAR.0>
0

>  <SCORE.INTRA.REPUL>
0.00183399

>  <SCORE.INTRA.REPUL.0>
0

>  <SCORE.INTRA.SOLV>
-1.65974

>  <SCORE.INTRA.SOLV.lig_0>
-100.951

>  <SCORE.INTRA.VDW>
4.42871

>  <SCORE.INTRA.VDW.0>
-5.71388

>  <SCORE.INTRA.norm>
0.043716

>  <SCORE.RESTR>
0

>  <SCORE.RESTR.CAVITY>
0

>  <SCORE.RESTR.norm>
0

>  <SCORE.SYSTEM>
0

>  <SCORE.SYSTEM.CONST>
0

>  <SCORE.SYSTEM.DIHEDRAL>
0

>  <SCORE.SYSTEM.SOLV>
0

>  <SCORE.SYSTEM.norm>
0

>  <SCORE.heavy>
42

>  <SCORE.norm>
-0.214578

>  <RMSD>
3.416

$$$$
3c44_lig
 OpenBabel11021811463D
libRbt.so/2013.1/901 2013/11/27
 42 45  0  0  0  0  0  0  0  0999 V2000
   37.3360   35.6635  -12.6637 C   0  0  2  0  0  0  0  0  0  0  0  0
   36.4690   36.5567  -13.3795 O   0  0  0  0  0  0  0  0  0  0  0  0
   32.9149   35.3118  -15.1138 C   0  0  2  0  0  0  0  0  0  0  0  0
   31.5860   34.8362  -15.5283 N   0  0  0  0  0  0  0  0  0  0  0  0
   35.2894   39.1846  -13.1985 C   0  0  1  0  0  0  0  0  0  0  0  0
   38.3271   42.0443  -13.3827 C   0  0  1  0  0  0  0  0  0  0  0  0
   38.1198   36.4595  -11.6150 C   0  0  2  0  0  0  0  0  0  0  0  0
   37.2091   37.2112  -10.7394 N   0  0  0  0  0  0  0  0  0  0  0  0
   33.6095   34.2706  -14.2314 C   0  0  0  0  0  0  0  0  0  0  0  0
   34.8800   40.6580  -13.1770 C   0  0  2  0  0  0  0  0  0  0  0  0
   34.6126   41.1098  -14.5060 O   0  0  0  0  0  0  0  0  0  0  0  0
   37.9149   43.5116  -13.2245 C   0  0  2  0  0  0  0  0  0  0  0  0
   37.2451   43.9386  -14.4606 N   0  0  0  0  0  0  0  0  0  0  0  0
   39.0985   37.4350  -12.2735 C   0  0  1  0  0  0  0  0  0  0  0  0
   39.9149   38.0367  -11.2642 O   0  0  0  0  0  0  0  0  0  0  0  0
   35.0376   34.7600  -13.9686 C   0  0  2  0  0  0  0  0  0  0  0  0
   35.7187   33.8141  -13.0717 N   0  0  0  0  0  0  0  0  0  0  0  0
   36.1898   41.2817  -12.6993 C   0  0  2  0  0  0  0  0  0  0  0  0
   37.1787   41.2561  -13.7417 O   0  0  0  0  0  0  0  0  0  0  0  0
   39.1375   44.4079  -12.9881 C   0  0  1  0  0  0  0  0  0  0  0  0
   39.6807   44.1779  -11.6854 O   0  0  0  0  0  0  0  0  0  0  0  0
   39.9860   36.6867  -13.2698 C   0  0  2  0  0  0  0  0  0  0  0  0
   40.8223   37.6176  -13.9619 O   0  0  0  0  0  0  0  0  0  0  0  0
   35.0872   36.1592  -13.3422 C   0  0  2  0  0  0  0  0  0  0  0  0
   36.5800   40.3019  -11.6039 C   0  0  2  0  0  0  0  0  0  0  0  0
   36.0367   39.0177  -11.9793 O   0  0  0  0  0  0  0  0  0  0  0  0
   40.2258   44.1387  -14.0288 C   0  0  2  0  0  0  0  0  0  0  0  0
   39.7604   44.5776  -15.3082 O   0  0  0  0  0  0  0  0  0  0  0  0
   39.1090   35.9369  -14.2739 C   0  0  2  0  0  0  0  0  0  0  0  0
   38.2366   35.0199  -13.5845 O   0  0  0  0  0  0  0  0  0  0  0  0
   34.2136   37.1940  -14.0486 C   0  0  2  0  0  0  0  0  0  0  0  0
   34.1063   38.3672  -13.2259 O   0  0  0  0  0  0  0  0  0  0  0  0
   36.0022   40.7740  -10.2680 C   0  0  0  0  0  0  0  0  0  0  0  0
   36.5029   42.0810   -9.9780 O   0  0  0  0  0  0  0  0  0  0  0  0
   40.5286   42.6382  -14.0558 C   0  0  1  0  0  0  0  0  0  0  0  0
   39.3237   41.9376  -14.4117 O   0  0  0  0  0  0  0  0  0  0  0  0
   40.0372   35.1673  -15.2171 C   0  0  0  0  0  0  0  0  0  0  0  0
   40.8073   34.1679  -14.4626 O   0  0  0  0  0  0  0  0  0  0  0  0
   32.8184   36.6278  -14.3378 C   0  0  1  0  0  0  0  0  0  0  0  0
   32.0484   37.5786  -15.0768 O   0  0  0  0  0  0  0  0  0  0  0  0
   41.6266   42.2872  -15.0605 C   0  0  0  0  0  0  0  0  0  0  0  0
   42.8603   42.9979  -14.6968 N   0  0  0  0  0  0  0  0  0  0  0  0
  1  2  1  6  0  0  0
  1  7  1  0  0  0  0
  1 30  1  0  0  0  0
  3  4  1  1  0  0  0
  3  9  1  0  0  0  0
  3 39  1  0  0  0  0
  5 10  1  0  0  0  0
  5 26  1  0  0  0  0
  5 32  1  1  0  0  0
  6 12  1  0  0  0  0
  6 36  1  0  0  0  0
  6 19  1  6  0  0  0
  7  8  1  6  0  0  0
  7 14  1  0  0  0  0
  9 16  1  0  0  0  0
 10 11  1  6  0  0  0
 10 18  1  0  0  0  0
 12 13  1  6  0  0  0
 12 20  1  0  0  0  0
 14 15  1  1  0  0  0
 14 22  1  0  0  0  0
 16 17  1  1  0  0  0
 16 24  1  0  0  0  0
 18 19  1  6  0  0  0
 18 25  1  0  0  0  0
 20 21  1  1  0  0  0
 20 27  1  0  0  0  0
 22 23  1  6  0  0  0
 22 29  1  0  0  0  0
 24  2  1  6  0  0  0
 24 31  1  0  0  0  0
 25 26  1  0  0  0  0
 25 33  1  1  0  0  0
 27 28  1  6  0  0  0
 27 35  1  0  0  0  0
 29 30  1  0  0  0  0
 29 37  1  6  0  0  0
 31 32  1  1  0  0  0
 31 39  1  0  0  0  0
 33 34  1  0  0  0  0
 35 36  1  0  0  0  0
 35 41  1  6  0  0  0
 37 38  1  0  0  0  0
 39 40  1  6  0  0  0
 41 42  1  0  0  0  0
M  END
>  <CHROM.1>
-124.20760204,142.13570683,-63.12591751,169.90952746,-59.23138211,-58.75557933
62.87152975,74.39339350,60.00477084,37.26432901,39.00049029,-13.40593642
-2.10771224,0.01008173,0.05652544

>  <Name>
3c44_lig

>  <RI>
224

>  <Rbt.Current_Directory>
/home/itssahil/PROJECTS/Mol_Feturizer/New_Systems/rnas/3c44

>  <Rbt.Executable>
rbdock ($Id: //depot/dev/client3/rdock/2013.1/src/exe/rbdock.cxx#4 $)

>  <Rbt.Library>
libRbt.so (2013.1, Build901 2013/11/27)

>  <Rbt.Parameter_File>
/export/apps/rDock/src/rDock_2013.1_src/data/scripts/dock_solv.prm

>  <Rbt.Receptor>
prm/pocket_docking_3.prm

>  <SCORE>
-11.7095

>  <SCORE.INTER>
-17.0045

>  <SCORE.INTER.CONST>
1

>  <SCORE.INTER.POLAR>
-1.74107

>  <SCORE.INTER.ROT>
9

>  <SCORE.INTER.SOLV>
18.9963

>  <SCORE.INTER.VDW>
-21.4649

>  <SCORE.INTER.norm>
-0.404869

>  <SCORE.INTRA>
5.29158

>  <SCORE.INTRA.DIHEDRAL>
-0.835249

>  <SCORE.INTRA.DIHEDRAL.0>
14.8538

>  <SCORE.INTRA.POLAR>
0

>  <SCORE.INTRA.POLAR.0>
0

>  <SCORE.INTRA.REPUL>
0

>  <SCORE.INTRA.REPUL.0>
0

>  <SCORE.INTRA.SOLV>
1.5164

>  <SCORE.INTRA.SOLV.lig_0>
-100.951

>  <SCORE.INTRA.VDW>
4.95101

>  <SCORE.INTRA.VDW.0>
-5.71388

>  <SCORE.INTRA.norm>
0.12599

>  <SCORE.RESTR>
0.00347338

>  <SCORE.RESTR.CAVITY>
0.00347338

>  <SCORE.RESTR.norm>
8.26995e-05

>  <SCORE.SYSTEM>
0

>  <SCORE.SYSTEM.CONST>
0

>  <SCORE.SYSTEM.DIHEDRAL>
0

>  <SCORE.SYSTEM.SOLV>
0

>  <SCORE.SYSTEM.norm>
0

>  <SCORE.heavy>
42

>  <SCORE.norm>
-0.278797

>  <RMSD>
3.437

$$$$
3c44_lig
 OpenBabel11021811463D
libRbt.so/2013.1/901 2013/11/27
 42 45  0  0  0  0  0  0  0  0999 V2000
   35.9181   34.3644  -14.3224 C   0  0  2  0  0  0  0  0  0  0  0  0
   35.0661   34.8713  -13.2837 O   0  0  0  0  0  0  0  0  0  0  0  0
   32.5505   36.2971  -16.2549 C   0  0  2  0  0  0  0  0  0  0  0  0
   31.5022   36.7894  -17.1619 N   0  0  0  0  0  0  0  0  0  0  0  0
   35.3284   38.5098  -13.1392 C   0  0  1  0  0  0  0  0  0  0  0  0
   38.4207   41.2404  -14.1748 C   0  0  1  0  0  0  0  0  0  0  0  0
   36.8363   33.2870  -13.7359 C   0  0  2  0  0  0  0  0  0  0  0  0
   36.0530   32.2399  -13.0643 N   0  0  0  0  0  0  0  0  0  0  0  0
   32.1614   34.9370  -15.6683 C   0  0  0  0  0  0  0  0  0  0  0  0
   35.0769   39.7481  -14.0008 C   0  0  2  0  0  0  0  0  0  0  0  0
   35.2831   39.4339  -15.3794 O   0  0  0  0  0  0  0  0  0  0  0  0
   39.8253   40.6751  -14.4100 C   0  0  2  0  0  0  0  0  0  0  0  0
   40.1362   39.7423  -13.3181 N   0  0  0  0  0  0  0  0  0  0  0  0
   37.8300   33.8857  -12.7373 C   0  0  1  0  0  0  0  0  0  0  0  0
   38.7634   32.8769  -12.3391 O   0  0  0  0  0  0  0  0  0  0  0  0
   33.3572   34.4166  -14.8637 C   0  0  2  0  0  0  0  0  0  0  0  0
   32.9993   33.1373  -14.2327 N   0  0  0  0  0  0  0  0  0  0  0  0
   36.2254   40.6330  -13.5204 C   0  0  2  0  0  0  0  0  0  0  0  0
   37.4832   40.1592  -14.0289 O   0  0  0  0  0  0  0  0  0  0  0  0
   40.8770   41.7922  -14.4222 C   0  0  1  0  0  0  0  0  0  0  0  0
   40.7465   42.5878  -15.6033 O   0  0  0  0  0  0  0  0  0  0  0  0
   38.5812   35.0494  -13.3868 C   0  0  2  0  0  0  0  0  0  0  0  0
   39.4275   35.6750  -12.4186 O   0  0  0  0  0  0  0  0  0  0  0  0
   33.8192   35.3934  -13.7751 C   0  0  2  0  0  0  0  0  0  0  0  0
   36.1573   40.3860  -12.0216 C   0  0  2  0  0  0  0  0  0  0  0  0
   35.6374   39.0509  -11.8414 O   0  0  0  0  0  0  0  0  0  0  0  0
   40.7291   42.6995  -13.1996 C   0  0  2  0  0  0  0  0  0  0  0  0
   41.0773   41.9566  -12.0279 O   0  0  0  0  0  0  0  0  0  0  0  0
   37.5772   36.0682  -13.9283 C   0  0  2  0  0  0  0  0  0  0  0  0
   36.6958   35.4402  -14.8801 O   0  0  0  0  0  0  0  0  0  0  0  0
   33.9943   36.8322  -14.2566 C   0  0  2  0  0  0  0  0  0  0  0  0
   34.1401   37.6997  -13.1204 O   0  0  0  0  0  0  0  0  0  0  0  0
   35.2393   41.4254  -11.3748 C   0  0  0  0  0  0  0  0  0  0  0  0
   35.3736   41.3480   -9.9539 O   0  0  0  0  0  0  0  0  0  0  0  0
   39.2802   43.1863  -13.1133 C   0  0  1  0  0  0  0  0  0  0  0  0
   38.4223   42.0392  -12.9810 O   0  0  0  0  0  0  0  0  0  0  0  0
   38.3714   37.1860  -14.6089 C   0  0  0  0  0  0  0  0  0  0  0  0
   37.4712   38.0305  -15.4072 O   0  0  0  0  0  0  0  0  0  0  0  0
   32.7963   37.2763  -15.1042 C   0  0  1  0  0  0  0  0  0  0  0  0
   33.0210   38.5912  -15.6175 O   0  0  0  0  0  0  0  0  0  0  0  0
   39.0532   44.1204  -11.9240 C   0  0  0  0  0  0  0  0  0  0  0  0
   39.5980   45.4480  -12.2407 N   0  0  0  0  0  0  0  0  0  0  0  0
  1  2  1  1  0  0  0
  1  7  1  0  0  0  0
  1 30  1  0  0  0  0
  3  4  1  6  0  0  0
  3  9  1  0  0  0  0
  3 39  1  0  0  0  0
  5 10  1  0  0  0  0
  5 26  1  0  0  0  0
  5 32  1  1  0  0  0
  6 12  1  0  0  0  0
  6 36  1  0  0  0  0
  6 19  1  1  0  0  0
  7  8  1  1  0  0  0
  7 14  1  0  0  0  0
  9 16  1  0  0  0  0
 10 11  1  6  0  0  0
 10 18  1  0  0  0  0
 12 13  1  1  0  0  0
 12 20  1  0  0  0  0
 14 15  1  6  0  0  0
 14 22  1  0  0  0  0
 16 17  1  1  0  0  0
 16 24  1  0  0  0  0
 18 19  1  6  0  0  0
 18 25  1  0  0  0  0
 20 21  1  6  0  0  0
 20 27  1  0  0  0  0
 22 23  1  1  0  0  0
 22 29  1  0  0  0  0
 24  2  1  6  0  0  0
 24 31  1  0  0  0  0
 25 26  1  0  0  0  0
 25 33  1  1  0  0  0
 27 28  1  1  0  0  0
 27 35  1  0  0  0  0
 29 30  1  0  0  0  0
 29 37  1  6  0  0  0
 31 32  1  1  0  0  0
 31 39  1  0  0  0  0
 33 34  1  0  0  0  0
 35 36  1  0  0  0  0
 35 41  1  1  0  0  0
 37 38  1  0  0  0  0
 39 40  1  6  0  0  0
 41 42  1  0  0  0  0
M  END
>  <CHROM.1>
-153.40715871,82.73706514,167.33344152,151.41080989,40.97945222,-169.29775329
167.22532804,124.98211452,76.74523842,36.66095122,38.27327492,-13.71734159
-2.13396672,-0.23291530,0.02941407

>  <Name>
3c44_lig

>  <RI>
0

>  <Rbt.Current_Directory>
/home/itssahil/PROJECTS/Mol_Feturizer/New_Systems/rnas/3c44

>  <Rbt.Executable>
rbdock ($Id: //depot/dev/client3/rdock/2013.1/src/exe/rbdock.cxx#4 $)

>  <Rbt.Library>
libRbt.so (2013.1, Build901 2013/11/27)

>  <Rbt.Parameter_File>
/export/apps/rDock/src/rDock_2013.1_src/data/scripts/dock_solv.prm

>  <Rbt.Receptor>
prm/pocket_docking_2.prm

>  <SCORE>
2.74432

>  <SCORE.INTER>
-6.60319

>  <SCORE.INTER.CONST>
1

>  <SCORE.INTER.POLAR>
-1.28904

>  <SCORE.INTER.ROT>
9

>  <SCORE.INTER.SOLV>
15.2809

>  <SCORE.INTER.VDW>
-14.799

>  <SCORE.INTER.norm>
-0.157219

>  <SCORE.INTRA>
6.52369

>  <SCORE.INTRA.DIHEDRAL>
5.19491

>  <SCORE.INTRA.DIHEDRAL.0>
14.8538

>  <SCORE.INTRA.POLAR>
0

>  <SCORE.INTRA.POLAR.0>
0

>  <SCORE.INTRA.REPUL>
0

>  <SCORE.INTRA.REPUL.0>
0

>  <SCORE.INTRA.SOLV>
0.518261

>  <SCORE.INTRA.SOLV.lig_0>
-100.951

>  <SCORE.INTRA.VDW>
3.66711

>  <SCORE.INTRA.VDW.0>
-5.71388

>  <SCORE.INTRA.norm>
0.155326

>  <SCORE.RESTR>
2.82381

>  <SCORE.RESTR.CAVITY>
2.82381

>  <SCORE.RESTR.norm>
0.0672336

>  <SCORE.SYSTEM>
0

>  <SCORE.SYSTEM.CONST>
0

>  <SCORE.SYSTEM.DIHEDRAL>
0

>  <SCORE.SYSTEM.SOLV>
0

>  <SCORE.SYSTEM.norm>
0

>  <SCORE.heavy>
42

>  <SCORE.norm>
0.0653409

>  <RMSD>
3.471

$$$$
3c44_lig
 OpenBabel11021811463D
libRbt.so/2013.1/901 2013/11/27
 42 45  0  0  0  0  0  0  0  0999 V2000
   35.9667   33.2525  -13.4677 C   0  0  2  0  0  0  0  0  0  0  0  0
   36.1258   34.5149  -12.8022 O   0  0  0  0  0  0  0  0  0  0  0  0
   35.8384   36.2757  -16.5447 C   0  0  2  0  0  0  0  0  0  0  0  0
   35.7057   37.0844  -17.7663 N   0  0  0  0  0  0  0  0  0  0  0  0
   38.1574   37.3610  -13.0176 C   0  0  1  0  0  0  0  0  0  0  0  0
   37.3504   40.5563  -11.2502 C   0  0  1  0  0  0  0  0  0  0  0  0
   36.2169   32.1221  -12.4639 C   0  0  2  0  0  0  0  0  0  0  0  0
   35.3538   32.2694  -11.2831 N   0  0  0  0  0  0  0  0  0  0  0  0
   34.6107   36.4500  -15.6461 C   0  0  0  0  0  0  0  0  0  0  0  0
   38.5764   37.1355  -11.5641 C   0  0  2  0  0  0  0  0  0  0  0  0
   37.5282   36.4769  -10.8504 O   0  0  0  0  0  0  0  0  0  0  0  0
   36.0927   41.2133  -10.6719 C   0  0  2  0  0  0  0  0  0  0  0  0
   34.9193   40.4861  -11.1752 N   0  0  0  0  0  0  0  0  0  0  0  0
   37.6795   32.0915  -12.0131 C   0  0  1  0  0  0  0  0  0  0  0  0
   37.8995   30.9309  -11.2057 O   0  0  0  0  0  0  0  0  0  0  0  0
   34.7444   35.4675  -14.4778 C   0  0  2  0  0  0  0  0  0  0  0  0
   33.6113   35.6486  -13.5579 N   0  0  0  0  0  0  0  0  0  0  0  0
   38.6577   38.5858  -11.0921 C   0  0  2  0  0  0  0  0  0  0  0  0
   37.3443   39.1504  -10.9458 O   0  0  0  0  0  0  0  0  0  0  0  0
   35.9877   42.6823  -11.1022 C   0  0  1  0  0  0  0  0  0  0  0  0
   36.9838   43.4681  -10.4427 O   0  0  0  0  0  0  0  0  0  0  0  0
   38.5985   32.0458  -13.2353 C   0  0  2  0  0  0  0  0  0  0  0  0
   39.9625   32.1284  -12.8140 O   0  0  0  0  0  0  0  0  0  0  0  0
   36.0512   35.6410  -13.6939 C   0  0  2  0  0  0  0  0  0  0  0  0
   39.3566   39.2255  -12.2814 C   0  0  2  0  0  0  0  0  0  0  0  0
   38.9834   38.4592  -13.4470 O   0  0  0  0  0  0  0  0  0  0  0  0
   36.1694   42.8265  -12.6141 C   0  0  2  0  0  0  0  0  0  0  0  0
   35.0500   42.2278  -13.2734 O   0  0  0  0  0  0  0  0  0  0  0  0
   38.2743   33.2171  -14.1637 C   0  0  2  0  0  0  0  0  0  0  0  0
   36.8918   33.1638  -14.5674 O   0  0  0  0  0  0  0  0  0  0  0  0
   37.3017   35.7154  -14.5676 C   0  0  2  0  0  0  0  0  0  0  0  0
   38.4116   36.1634  -13.7725 O   0  0  0  0  0  0  0  0  0  0  0  0
   40.8707   39.1907  -12.0622 C   0  0  0  0  0  0  0  0  0  0  0  0
   41.5091   39.9545  -13.0878 O   0  0  0  0  0  0  0  0  0  0  0  0
   37.4687   42.1304  -13.0280 C   0  0  1  0  0  0  0  0  0  0  0  0
   37.3716   40.7392  -12.6748 O   0  0  0  0  0  0  0  0  0  0  0  0
   39.1825   33.1022  -15.3906 C   0  0  0  0  0  0  0  0  0  0  0  0
   40.5501   33.5176  -15.0467 O   0  0  0  0  0  0  0  0  0  0  0  0
   37.0877   36.6665  -15.7511 C   0  0  1  0  0  0  0  0  0  0  0  0
   38.2353   36.6527  -16.6031 O   0  0  0  0  0  0  0  0  0  0  0  0
   37.7356   42.2478  -14.5291 C   0  0  0  0  0  0  0  0  0  0  0  0
   38.3394   43.5574  -14.8121 N   0  0  0  0  0  0  0  0  0  0  0  0
  1  2  1  1  0  0  0
  1  7  1  0  0  0  0
  1 30  1  0  0  0  0
  3  4  1  6  0  0  0
  3  9  1  0  0  0  0
  3 39  1  0  0  0  0
  5 10  1  0  0  0  0
  5 26  1  0  0  0  0
  5 32  1  6  0  0  0
  6 12  1  0  0  0  0
  6 36  1  0  0  0  0
  6 19  1  6  0  0  0
  7  8  1  1  0  0  0
  7 14  1  0  0  0  0
  9 16  1  0  0  0  0
 10 11  1  1  0  0  0
 10 18  1  0  0  0  0
 12 13  1  6  0  0  0
 12 20  1  0  0  0  0
 14 15  1  1  0  0  0
 14 22  1  0  0  0  0
 16 17  1  1  0  0  0
 16 24  1  0  0  0  0
 18 19  1  6  0  0  0
 18 25  1  0  0  0  0
 20 21  1  1  0  0  0
 20 27  1  0  0  0  0
 22 23  1  1  0  0  0
 22 29  1  0  0  0  0
 24  2  1  1  0  0  0
 24 31  1  0  0  0  0
 25 26  1  0  0  0  0
 25 33  1  1  0  0  0
 27 28  1  6  0  0  0
 27 35  1  0  0  0  0
 29 30  1  0  0  0  0
 29 37  1  6  0  0  0
 31 32  1  1  0  0  0
 31 39  1  0  0  0  0
 33 34  1  0  0  0  0
 35 36  1  0  0  0  0
 35 41  1  6  0  0  0
 37 38  1  0  0  0  0
 39 40  1  6  0  0  0
 41 42  1  0  0  0  0
M  END
>  <CHROM.1>
173.75104350,130.26756570,-162.08022011,-147.44293958,52.46116961,-172.02995760
-75.31622758,-50.95080010,81.50611705,37.39124458,37.17934663,-13.20390320
1.52700924,0.66447964,-2.98647811

>  <Name>
3c44_lig

>  <RI>
224

>  <Rbt.Current_Directory>
/home/itssahil/PROJECTS/Mol_Feturizer/New_Systems/rnas/3c44

>  <Rbt.Executable>
rbdock ($Id: //depot/dev/client3/rdock/2013.1/src/exe/rbdock.cxx#4 $)

>  <Rbt.Library>
libRbt.so (2013.1, Build901 2013/11/27)

>  <Rbt.Parameter_File>
/export/apps/rDock/src/rDock_2013.1_src/data/scripts/dock_solv.prm

>  <Rbt.Receptor>
prm/pocket_docking_3.prm

>  <SCORE>
10.5307

>  <SCORE.INTER>
-0.300408

>  <SCORE.INTER.CONST>
1

>  <SCORE.INTER.POLAR>
-0.500749

>  <SCORE.INTER.ROT>
9

>  <SCORE.INTER.SOLV>
24.3563

>  <SCORE.INTER.VDW>
-16.2499

>  <SCORE.INTER.norm>
-0.00715257

>  <SCORE.INTRA>
9.12232

>  <SCORE.INTRA.DIHEDRAL>
0.735063

>  <SCORE.INTRA.DIHEDRAL.0>
14.8538

>  <SCORE.INTRA.POLAR>
0

>  <SCORE.INTRA.POLAR.0>
0

>  <SCORE.INTRA.REPUL>
0

>  <SCORE.INTRA.REPUL.0>
0

>  <SCORE.INTRA.SOLV>
-3.96662

>  <SCORE.INTRA.SOLV.lig_0>
-100.951

>  <SCORE.INTRA.VDW>
10.7381

>  <SCORE.INTRA.VDW.0>
-5.71388

>  <SCORE.INTRA.norm>
0.217198

>  <SCORE.RESTR>
1.70874

>  <SCORE.RESTR.CAVITY>
1.70874

>  <SCORE.RESTR.norm>
0.0406844

>  <SCORE.SYSTEM>
0

>  <SCORE.SYSTEM.CONST>
0

>  <SCORE.SYSTEM.DIHEDRAL>
0

>  <SCORE.SYSTEM.SOLV>
0

>  <SCORE.SYSTEM.norm>
0

>  <SCORE.heavy>
42

>  <SCORE.norm>
0.25073

>  <RMSD>
3.510

$$$$
3c44_lig
 OpenBabel11021811463D
libRbt.so/2013.1/901 2013/11/27
 42 45  0  0  0  0  0  0  0  0999 V2000
   37.0684   35.4427  -14.5809 C   0  0  2  0  0  0  0  0  0  0  0  0
   36.4425   35.2879  -13.2979 O   0  0  0  0  0  0  0  0  0  0  0  0
   32.8985   34.6425  -15.3504 C   0  0  2  0  0  0  0  0  0  0  0  0
   31.5557   34.3713  -15.8863 N   0  0  0  0  0  0  0  0  0  0  0  0
   35.2645   38.3880  -13.3979 C   0  0  1  0  0  0  0  0  0  0  0  0
   37.6644   41.5553  -14.5128 C   0  0  1  0  0  0  0  0  0  0  0  0
   38.2020   34.4200  -14.7119 C   0  0  2  0  0  0  0  0  0  0  0  0
   37.7088   33.0570  -14.4666 N   0  0  0  0  0  0  0  0  0  0  0  0
   33.4024   33.4522  -14.5292 C   0  0  0  0  0  0  0  0  0  0  0  0
   34.5292   39.6401  -13.8780 C   0  0  2  0  0  0  0  0  0  0  0  0
   34.2499   39.5366  -15.2755 O   0  0  0  0  0  0  0  0  0  0  0  0
   38.3947   41.7560  -15.8447 C   0  0  2  0  0  0  0  0  0  0  0  0
   38.9114   40.4540  -16.2884 N   0  0  0  0  0  0  0  0  0  0  0  0
   39.3406   34.7228  -13.7347 C   0  0  1  0  0  0  0  0  0  0  0  0
   40.4372   33.8433  -14.0018 O   0  0  0  0  0  0  0  0  0  0  0  0
   34.8558   33.7380  -14.1368 C   0  0  2  0  0  0  0  0  0  0  0  0
   35.3563   32.6423  -13.2931 N   0  0  0  0  0  0  0  0  0  0  0  0
   35.6294   40.6793  -13.6715 C   0  0  2  0  0  0  0  0  0  0  0  0
   36.6616   40.5348  -14.6608 O   0  0  0  0  0  0  0  0  0  0  0  0
   39.5705   42.7295  -15.6903 C   0  0  1  0  0  0  0  0  0  0  0  0
   39.0923   44.0615  -15.4852 O   0  0  0  0  0  0  0  0  0  0  0  0
   39.7964   36.1735  -13.9023 C   0  0  2  0  0  0  0  0  0  0  0  0
   40.7827   36.4843  -12.9145 O   0  0  0  0  0  0  0  0  0  0  0  0
   35.0245   35.0617  -13.3807 C   0  0  2  0  0  0  0  0  0  0  0  0
   36.1631   40.2516  -12.3134 C   0  0  2  0  0  0  0  0  0  0  0  0
   35.9519   38.8267  -12.2114 O   0  0  0  0  0  0  0  0  0  0  0  0
   40.4566   42.3378  -14.5067 C   0  0  2  0  0  0  0  0  0  0  0  0
   41.1121   41.1028  -14.8089 O   0  0  0  0  0  0  0  0  0  0  0  0
   38.5966   37.1086  -13.7440 C   0  0  2  0  0  0  0  0  0  0  0  0
   37.5805   36.7820  -14.7125 O   0  0  0  0  0  0  0  0  0  0  0  0
   34.3303   36.2527  -14.0383 C   0  0  2  0  0  0  0  0  0  0  0  0
   34.3033   37.3555  -13.1175 O   0  0  0  0  0  0  0  0  0  0  0  0
   35.4098   40.9993  -11.2111 C   0  0  0  0  0  0  0  0  0  0  0  0
   35.5092   42.4054  -11.4481 O   0  0  0  0  0  0  0  0  0  0  0  0
   39.5826   42.1879  -13.2587 C   0  0  1  0  0  0  0  0  0  0  0  0
   38.6092   41.1580  -13.5063 O   0  0  0  0  0  0  0  0  0  0  0  0
   39.0910   38.5402  -13.9669 C   0  0  0  0  0  0  0  0  0  0  0  0
   39.9961   38.9365  -12.8784 O   0  0  0  0  0  0  0  0  0  0  0  0
   32.9023   35.8892  -14.4621 C   0  0  1  0  0  0  0  0  0  0  0  0
   32.3031   36.9872  -15.1538 O   0  0  0  0  0  0  0  0  0  0  0  0
   40.3999   41.8163  -12.0208 C   0  0  0  0  0  0  0  0  0  0  0  0
   41.0172   43.0293  -11.4666 N   0  0  0  0  0  0  0  0  0  0  0  0
  1  2  1  1  0  0  0
  1  7  1  0  0  0  0
  1 30  1  0  0  0  0
  3  4  1  1  0  0  0
  3  9  1  0  0  0  0
  3 39  1  0  0  0  0
  5 10  1  0  0  0  0
  5 26  1  0  0  0  0
  5 32  1  1  0  0  0
  6 12  1  0  0  0  0
  6 36  1  0  0  0  0
  6 19  1  6  0  0  0
  7  8  1  1  0  0  0
  7 14  1  0  0  0  0
  9 16  1  0  0  0  0
 10 11  1  6  0  0  0
 10 18  1  0  0  0  0
 12 13  1  1  0  0  0
 12 20  1  0  0  0  0
 14 15  1  6  0  0  0
 14 22  1  0  0  0  0
 16 17  1  1  0  0  0
 16 24  1  0  0  0  0
 18 19  1  6  0  0  0
 18 25  1  0  0  0  0
 20 21  1  1  0  0  0
 20 27  1  0  0  0  0
 22 23  1  1  0  0  0
 22 29  1  0  0  0  0
 24  2  1  6  0  0  0
 24 31  1  0  0  0  0
 25 26  1  0  0  0  0
 25 33  1  1  0  0  0
 27 28  1  6  0  0  0
 27 35  1  0  0  0  0
 29 30  1  0  0  0  0
 29 37  1  6  0  0  0
 31 32  1  1  0  0  0
 31 39  1  0  0  0  0
 33 34  1  0  0  0  0
 35 36  1  0  0  0  0
 35 41  1  1  0  0  0
 37 38  1  0  0  0  0
 39 40  1  6  0  0  0
 41 42  1  0  0  0  0
M  END
>  <CHROM.1>
-124.38366673,110.46281016,-156.64137214,176.98013736,62.56425951,-55.13508882
-67.28359025,103.66798452,80.92074513,37.07180818,38.23875841,-13.93277562
-2.11749369,-0.04871136,0.04726716

>  <Name>
3c44_lig

>  <RI>
0

>  <Rbt.Current_Directory>
/home/itssahil/PROJECTS/Mol_Feturizer/New_Systems/rnas/3c44

>  <Rbt.Executable>
rbdock ($Id: //depot/dev/client3/rdock/2013.1/src/exe/rbdock.cxx#4 $)

>  <Rbt.Library>
libRbt.so (2013.1, Build901 2013/11/27)

>  <Rbt.Parameter_File>
/export/apps/rDock/src/rDock_2013.1_src/data/scripts/dock_solv.prm

>  <Rbt.Receptor>
prm/pocket_docking_2.prm

>  <SCORE>
3.52654

>  <SCORE.INTER>
-6.77403

>  <SCORE.INTER.CONST>
1

>  <SCORE.INTER.POLAR>
-1.44682

>  <SCORE.INTER.ROT>
9

>  <SCORE.INTER.SOLV>
14.6949

>  <SCORE.INTER.VDW>
-14.1916

>  <SCORE.INTER.norm>
-0.161286

>  <SCORE.INTRA>
7.80746

>  <SCORE.INTRA.DIHEDRAL>
9.41181

>  <SCORE.INTRA.DIHEDRAL.0>
14.8538

>  <SCORE.INTRA.POLAR>
0

>  <SCORE.INTRA.POLAR.0>
0

>  <SCORE.INTRA.REPUL>
0.160542

>  <SCORE.INTRA.REPUL.0>
0

>  <SCORE.INTRA.SOLV>
2.52496

>  <SCORE.INTRA.SOLV.lig_0>
-100.951

>  <SCORE.INTRA.VDW>
1.03637

>  <SCORE.INTRA.VDW.0>
-5.71388

>  <SCORE.INTRA.norm>
0.185892

>  <SCORE.RESTR>
2.49311

>  <SCORE.RESTR.CAVITY>
2.49311

>  <SCORE.RESTR.norm>
0.0593597

>  <SCORE.SYSTEM>
0

>  <SCORE.SYSTEM.CONST>
0

>  <SCORE.SYSTEM.DIHEDRAL>
0

>  <SCORE.SYSTEM.SOLV>
0

>  <SCORE.SYSTEM.norm>
0

>  <SCORE.heavy>
42

>  <SCORE.norm>
0.0839652

>  <RMSD>
3.526

$$$$
3c44_lig
 OpenBabel11021811463D
libRbt.so/2013.1/901 2013/11/27
 42 45  0  0  0  0  0  0  0  0999 V2000
   37.6544   36.2065  -12.0141 C   0  0  2  0  0  0  0  0  0  0  0  0
   36.7903   36.9619  -12.8770 O   0  0  0  0  0  0  0  0  0  0  0  0
   33.3699   35.3951  -14.6191 C   0  0  2  0  0  0  0  0  0  0  0  0
   32.0813   34.8217  -15.0369 N   0  0  0  0  0  0  0  0  0  0  0  0
   35.5166   39.5073  -12.9385 C   0  0  1  0  0  0  0  0  0  0  0  0
   38.5468   42.3575  -13.1002 C   0  0  1  0  0  0  0  0  0  0  0  0
   38.7233   37.1391  -11.4347 C   0  0  2  0  0  0  0  0  0  0  0  0
   38.1052   38.2956  -10.7702 N   0  0  0  0  0  0  0  0  0  0  0  0
   34.0686   34.4761  -13.6130 C   0  0  0  0  0  0  0  0  0  0  0  0
   35.0918   40.9679  -13.0978 C   0  0  2  0  0  0  0  0  0  0  0  0
   34.9429   41.2848  -14.4831 O   0  0  0  0  0  0  0  0  0  0  0  0
   38.1034   43.8159  -12.9450 C   0  0  2  0  0  0  0  0  0  0  0  0
   37.4721   44.2425  -14.2014 N   0  0  0  0  0  0  0  0  0  0  0  0
   39.6758   37.6388  -12.5238 C   0  0  1  0  0  0  0  0  0  0  0  0
   40.7433   38.3724  -11.9159 O   0  0  0  0  0  0  0  0  0  0  0  0
   35.4623   35.0534  -13.3435 C   0  0  2  0  0  0  0  0  0  0  0  0
   36.1428   34.2299  -12.3328 N   0  0  0  0  0  0  0  0  0  0  0  0
   36.3457   41.6595  -12.5666 C   0  0  2  0  0  0  0  0  0  0  0  0
   37.4263   41.5529  -13.5079 O   0  0  0  0  0  0  0  0  0  0  0  0
   39.3007   44.7309  -12.6562 C   0  0  1  0  0  0  0  0  0  0  0  0
   39.7996   44.4986  -11.3363 O   0  0  0  0  0  0  0  0  0  0  0  0
   40.2485   36.4501  -13.2980 C   0  0  2  0  0  0  0  0  0  0  0  0
   41.0502   36.9246  -14.3829 O   0  0  0  0  0  0  0  0  0  0  0  0
   35.4260   36.5069  -12.8551 C   0  0  2  0  0  0  0  0  0  0  0  0
   36.6438   40.7971  -11.3503 C   0  0  2  0  0  0  0  0  0  0  0  0
   36.1505   39.4726  -11.6464 O   0  0  0  0  0  0  0  0  0  0  0  0
   40.4309   44.4899  -13.6583 C   0  0  2  0  0  0  0  0  0  0  0  0
   40.0052   44.9323  -14.9502 O   0  0  0  0  0  0  0  0  0  0  0  0
   39.1037   35.5927  -13.8400 C   0  0  2  0  0  0  0  0  0  0  0  0
   38.2682   35.1371  -12.7576 O   0  0  0  0  0  0  0  0  0  0  0  0
   34.5414   37.4282  -13.6926 C   0  0  2  0  0  0  0  0  0  0  0  0
   34.3495   38.6685  -12.9930 O   0  0  0  0  0  0  0  0  0  0  0  0
   35.9409   41.3842  -10.1244 C   0  0  0  0  0  0  0  0  0  0  0  0
   34.6936   41.9532  -10.5285 O   0  0  0  0  0  0  0  0  0  0  0  0
   40.7608   42.9952  -13.6867 C   0  0  1  0  0  0  0  0  0  0  0  0
   39.5822   42.2772  -14.0927 O   0  0  0  0  0  0  0  0  0  0  0  0
   39.7234   34.3941  -14.5630 C   0  0  0  0  0  0  0  0  0  0  0  0
   40.4182   34.8422  -15.7785 O   0  0  0  0  0  0  0  0  0  0  0  0
   33.1849   36.7735  -13.9796 C   0  0  1  0  0  0  0  0  0  0  0  0
   32.4085   37.6130  -14.8373 O   0  0  0  0  0  0  0  0  0  0  0  0
   41.9009   42.6722  -14.6532 C   0  0  0  0  0  0  0  0  0  0  0  0
   41.9840   41.2162  -14.8340 N   0  0  0  0  0  0  0  0  0  0  0  0
  1  2  1  6  0  0  0
  1  7  1  0  0  0  0
  1 30  1  0  0  0  0
  3  4  1  1  0  0  0
  3  9  1  0  0  0  0
  3 39  1  0  0  0  0
  5 10  1  0  0  0  0
  5 26  1  0  0  0  0
  5 32  1  1  0  0  0
  6 12  1  0  0  0  0
  6 36  1  0  0  0  0
  6 19  1  6  0  0  0
  7  8  1  6  0  0  0
  7 14  1  0  0  0  0
  9 16  1  0  0  0  0
 10 11  1  6  0  0  0
 10 18  1  0  0  0  0
 12 13  1  6  0  0  0
 12 20  1  0  0  0  0
 14 15  1  1  0  0  0
 14 22  1  0  0  0  0
 16 17  1  1  0  0  0
 16 24  1  0  0  0  0
 18 19  1  6  0  0  0
 18 25  1  0  0  0  0
 20 21  1  1  0  0  0
 20 27  1  0  0  0  0
 22 23  1  6  0  0  0
 22 29  1  0  0  0  0
 24  2  1  6  0  0  0
 24 31  1  0  0  0  0
 25 26  1  0  0  0  0
 25 33  1  1  0  0  0
 27 28  1  6  0  0  0
 27 35  1  0  0  0  0
 29 30  1  0  0  0  0
 29 37  1  1  0  0  0
 31 32  1  1  0  0  0
 31 39  1  0  0  0  0
 33 34  1  0  0  0  0
 35 36  1  0  0  0  0
 35 41  1  6  0  0  0
 37 38  1  0  0  0  0
 39 40  1  6  0  0  0
 41 42  1  0  0  0  0
M  END
>  <CHROM.1>
-145.94707339,141.72130098,-57.30417141,171.93822453,-60.95124146,34.75965582
-67.97366349,71.26633775,-168.75364337,37.44656990,39.20196205,-13.19590304
-2.03253046,0.09644641,0.09243651

>  <Name>
3c44_lig

>  <RI>
224

>  <Rbt.Current_Directory>
/home/itssahil/PROJECTS/Mol_Feturizer/New_Systems/rnas/3c44

>  <Rbt.Executable>
rbdock ($Id: //depot/dev/client3/rdock/2013.1/src/exe/rbdock.cxx#4 $)

>  <Rbt.Library>
libRbt.so (2013.1, Build901 2013/11/27)

>  <Rbt.Parameter_File>
/export/apps/rDock/src/rDock_2013.1_src/data/scripts/dock_solv.prm

>  <Rbt.Receptor>
prm/pocket_docking_3.prm

>  <SCORE>
-11.3189

>  <SCORE.INTER>
-20.922

>  <SCORE.INTER.CONST>
1

>  <SCORE.INTER.POLAR>
-2.10868

>  <SCORE.INTER.ROT>
9

>  <SCORE.INTER.SOLV>
18.6286

>  <SCORE.INTER.VDW>
-22.7286

>  <SCORE.INTER.norm>
-0.498142

>  <SCORE.INTRA>
9.39672

>  <SCORE.INTRA.DIHEDRAL>
-1.42351

>  <SCORE.INTRA.DIHEDRAL.0>
14.8538

>  <SCORE.INTRA.POLAR>
0

>  <SCORE.INTRA.POLAR.0>
0

>  <SCORE.INTRA.REPUL>
0.0480379

>  <SCORE.INTRA.REPUL.0>
0

>  <SCORE.INTRA.SOLV>
2.43358

>  <SCORE.INTRA.SOLV.lig_0>
-100.951

>  <SCORE.INTRA.VDW>
8.6515

>  <SCORE.INTRA.VDW.0>
-5.71388

>  <SCORE.INTRA.norm>
0.223731

>  <SCORE.RESTR>
0.206373

>  <SCORE.RESTR.CAVITY>
0.206373

>  <SCORE.RESTR.norm>
0.00491363

>  <SCORE.SYSTEM>
0

>  <SCORE.SYSTEM.CONST>
0

>  <SCORE.SYSTEM.DIHEDRAL>
0

>  <SCORE.SYSTEM.SOLV>
0

>  <SCORE.SYSTEM.norm>
0

>  <SCORE.heavy>
42

>  <SCORE.norm>
-0.269497

>  <RMSD>
3.573

$$$$
3c44_lig
 OpenBabel11021811463D
libRbt.so/2013.1/901 2013/11/27
 42 45  0  0  0  0  0  0  0  0999 V2000
   35.9033   34.8032  -14.6663 C   0  0  2  0  0  0  0  0  0  0  0  0
   36.4046   36.1049  -15.0071 O   0  0  0  0  0  0  0  0  0  0  0  0
   34.7472   39.3983  -16.9033 C   0  0  2  0  0  0  0  0  0  0  0  0
   33.9774   40.5140  -17.4748 N   0  0  0  0  0  0  0  0  0  0  0  0
   36.6233   39.6760  -12.8867 C   0  0  1  0  0  0  0  0  0  0  0  0
   38.4640   42.9119  -11.2756 C   0  0  1  0  0  0  0  0  0  0  0  0
   35.9875   34.6159  -13.1478 C   0  0  2  0  0  0  0  0  0  0  0  0
   35.2959   35.7069  -12.4461 N   0  0  0  0  0  0  0  0  0  0  0  0
   34.0608   38.0617  -17.1993 C   0  0  0  0  0  0  0  0  0  0  0  0
   36.0976   40.0415  -11.4978 C   0  0  2  0  0  0  0  0  0  0  0  0
   34.9437   40.8759  -11.6165 O   0  0  0  0  0  0  0  0  0  0  0  0
   38.3554   43.3255   -9.8042 C   0  0  2  0  0  0  0  0  0  0  0  0
   37.0857   44.0415   -9.6187 N   0  0  0  0  0  0  0  0  0  0  0  0
   37.4419   34.5596  -12.6736 C   0  0  1  0  0  0  0  0  0  0  0  0
   37.4713   34.2266  -11.2824 O   0  0  0  0  0  0  0  0  0  0  0  0
   34.9898   36.9431  -16.7157 C   0  0  2  0  0  0  0  0  0  0  0  0
   34.3365   35.6426  -16.9276 N   0  0  0  0  0  0  0  0  0  0  0  0
   37.2664   40.8863  -10.9948 C   0  0  2  0  0  0  0  0  0  0  0  0
   37.2960   42.1627  -11.6542 O   0  0  0  0  0  0  0  0  0  0  0  0
   39.5103   44.2523   -9.4027 C   0  0  1  0  0  0  0  0  0  0  0  0
   40.7394   43.5234   -9.3484 O   0  0  0  0  0  0  0  0  0  0  0  0
   38.2066   33.5000  -13.4691 C   0  0  2  0  0  0  0  0  0  0  0  0
   39.5881   33.5267  -13.1006 O   0  0  0  0  0  0  0  0  0  0  0  0
   35.3652   37.0729  -15.2342 C   0  0  2  0  0  0  0  0  0  0  0  0
   38.4408   40.0431  -11.4660 C   0  0  2  0  0  0  0  0  0  0  0  0
   38.0064   39.3499  -12.6560 O   0  0  0  0  0  0  0  0  0  0  0  0
   39.6644   45.4021  -10.3996 C   0  0  2  0  0  0  0  0  0  0  0  0
   38.5251   46.2606  -10.2947 O   0  0  0  0  0  0  0  0  0  0  0  0
   38.0671   33.7836  -14.9655 C   0  0  2  0  0  0  0  0  0  0  0  0
   36.6759   33.7936  -15.3421 O   0  0  0  0  0  0  0  0  0  0  0  0
   35.8347   38.4677  -14.8260 C   0  0  2  0  0  0  0  0  0  0  0  0
   35.8784   38.5543  -13.3923 O   0  0  0  0  0  0  0  0  0  0  0  0
   38.8325   39.0543  -10.3658 C   0  0  0  0  0  0  0  0  0  0  0  0
   37.7397   38.1647  -10.1261 O   0  0  0  0  0  0  0  0  0  0  0  0
   39.7701   44.8243  -11.8135 C   0  0  1  0  0  0  0  0  0  0  0  0
   38.5670   44.0875  -12.0947 O   0  0  0  0  0  0  0  0  0  0  0  0
   38.8053   32.6743  -15.7191 C   0  0  0  0  0  0  0  0  0  0  0  0
   38.4923   31.3665  -15.1254 O   0  0  0  0  0  0  0  0  0  0  0  0
   34.9011   39.5466  -15.3876 C   0  0  1  0  0  0  0  0  0  0  0  0
   35.4073   40.8450  -15.0697 O   0  0  0  0  0  0  0  0  0  0  0  0
   39.9486   45.9133  -12.8720 C   0  0  0  0  0  0  0  0  0  0  0  0
   38.7771   46.8003  -12.8558 N   0  0  0  0  0  0  0  0  0  0  0  0
  1  2  1  1  0  0  0
  1  7  1  0  0  0  0
  1 30  1  0  0  0  0
  3  4  1  1  0  0  0
  3  9  1  0  0  0  0
  3 39  1  0  0  0  0
  5 10  1  0  0  0  0
  5 26  1  0  0  0  0
  5 32  1  1  0  0  0
  6 12  1  0  0  0  0
  6 36  1  0  0  0  0
  6 19  1  6  0  0  0
  7  8  1  1  0  0  0
  7 14  1  0  0  0  0
  9 16  1  0  0  0  0
 10 11  1  6  0  0  0
 10 18  1  0  0  0  0
 12 13  1  6  0  0  0
 12 20  1  0  0  0  0
 14 15  1  1  0  0  0
 14 22  1  0  0  0  0
 16 17  1  1  0  0  0
 16 24  1  0  0  0  0
 18 19  1  6  0  0  0
 18 25  1  0  0  0  0
 20 21  1  6  0  0  0
 20 27  1  0  0  0  0
 22 23  1  1  0  0  0
 22 29  1  0  0  0  0
 24  2  1  6  0  0  0
 24 31  1  0  0  0  0
 25 26  1  0  0  0  0
 25 33  1  1  0  0  0
 27 28  1  6  0  0  0
 27 35  1  0  0  0  0
 29 30  1  0  0  0  0
 29 37  1  6  0  0  0
 31 32  1  1  0  0  0
 31 39  1  0  0  0  0
 33 34  1  0  0  0  0
 35 36  1  0  0  0  0
 35 41  1  6  0  0  0
 37 38  1  0  0  0  0
 39 40  1  6  0  0  0
 41 42  1  0  0  0  0
M  END
>  <CHROM.1>
-99.90312978,154.20869937,-68.46634802,-174.65166510,-87.36450768,62.87351383
43.90711565,164.64808842,-61.45455869,37.22063173,39.15565258,-13.05274166
1.86483538,0.90003591,-3.00834560

>  <Name>
3c44_lig

>  <RI>
0

>  <Rbt.Current_Directory>
/home/itssahil/PROJECTS/Mol_Feturizer/New_Systems/rnas/3c44

>  <Rbt.Executable>
rbdock ($Id: //depot/dev/client3/rdock/2013.1/src/exe/rbdock.cxx#4 $)

>  <Rbt.Library>
libRbt.so (2013.1, Build901 2013/11/27)

>  <Rbt.Parameter_File>
/export/apps/rDock/src/rDock_2013.1_src/data/scripts/dock_solv.prm

>  <Rbt.Receptor>
prm/pocket_docking_4.prm

>  <SCORE>
-2.00502

>  <SCORE.INTER>
-6.26704

>  <SCORE.INTER.CONST>
1

>  <SCORE.INTER.POLAR>
-1.29017

>  <SCORE.INTER.ROT>
9

>  <SCORE.INTER.SOLV>
23.0392

>  <SCORE.INTER.VDW>
-17.1572

>  <SCORE.INTER.norm>
-0.149215

>  <SCORE.INTRA>
3.79378

>  <SCORE.INTRA.DIHEDRAL>
-0.684617

>  <SCORE.INTRA.DIHEDRAL.0>
14.8538

>  <SCORE.INTRA.POLAR>
0

>  <SCORE.INTRA.POLAR.0>
0

>  <SCORE.INTRA.REPUL>
0.0640384

>  <SCORE.INTRA.REPUL.0>
0

>  <SCORE.INTRA.SOLV>
0.884496

>  <SCORE.INTRA.SOLV.lig_0>
-100.951

>  <SCORE.INTRA.VDW>
3.37365

>  <SCORE.INTRA.VDW.0>
-5.71388

>  <SCORE.INTRA.norm>
0.090328

>  <SCORE.RESTR>
0.46824

>  <SCORE.RESTR.CAVITY>
0.46824

>  <SCORE.RESTR.norm>
0.0111486

>  <SCORE.SYSTEM>
0

>  <SCORE.SYSTEM.CONST>
0

>  <SCORE.SYSTEM.DIHEDRAL>
0

>  <SCORE.SYSTEM.SOLV>
0

>  <SCORE.SYSTEM.norm>
0

>  <SCORE.heavy>
42

>  <SCORE.norm>
-0.0477385

>  <RMSD>
3.588

$$$$
3c44_lig
 OpenBabel11021811463D
libRbt.so/2013.1/901 2013/11/27
 42 45  0  0  0  0  0  0  0  0999 V2000
   36.2241   34.5453  -14.6968 C   0  0  2  0  0  0  0  0  0  0  0  0
   36.8729   35.8079  -14.9129 O   0  0  0  0  0  0  0  0  0  0  0  0
   35.0254   39.1911  -16.4394 C   0  0  2  0  0  0  0  0  0  0  0  0
   34.2428   40.3807  -16.8084 N   0  0  0  0  0  0  0  0  0  0  0  0
   38.5813   39.2625  -13.6574 C   0  0  1  0  0  0  0  0  0  0  0  0
   41.7373   41.5862  -13.7591 C   0  0  1  0  0  0  0  0  0  0  0  0
   36.6078   34.0157  -13.3110 C   0  0  2  0  0  0  0  0  0  0  0  0
   36.3082   35.0087  -12.2693 N   0  0  0  0  0  0  0  0  0  0  0  0
   34.1068   37.9832  -16.2338 C   0  0  0  0  0  0  0  0  0  0  0  0
   39.3279   39.1672  -12.3260 C   0  0  2  0  0  0  0  0  0  0  0  0
   38.7494   40.0648  -11.3765 O   0  0  0  0  0  0  0  0  0  0  0  0
   42.0127   43.0640  -13.4622 C   0  0  2  0  0  0  0  0  0  0  0  0
   40.7682   43.8165  -13.6724 N   0  0  0  0  0  0  0  0  0  0  0  0
   38.0938   33.6548  -13.2448 C   0  0  1  0  0  0  0  0  0  0  0  0
   38.3693   33.0205  -11.9922 O   0  0  0  0  0  0  0  0  0  0  0  0
   34.9946   36.7549  -16.0079 C   0  0  2  0  0  0  0  0  0  0  0  0
   34.1459   35.5829  -15.7450 N   0  0  0  0  0  0  0  0  0  0  0  0
   40.6883   39.7136  -12.7545 C   0  0  2  0  0  0  0  0  0  0  0  0
   40.6254   41.1334  -12.9668 O   0  0  0  0  0  0  0  0  0  0  0  0
   43.0943   43.6241  -14.3952 C   0  0  1  0  0  0  0  0  0  0  0  0
   44.3732   43.0783  -14.0610 O   0  0  0  0  0  0  0  0  0  0  0  0
   38.4483   32.7028  -14.3887 C   0  0  2  0  0  0  0  0  0  0  0  0
   39.8568   32.4557  -14.3890 O   0  0  0  0  0  0  0  0  0  0  0  0
   35.9742   36.9286  -14.8405 C   0  0  2  0  0  0  0  0  0  0  0  0
   40.8626   39.0069  -14.0896 C   0  0  2  0  0  0  0  0  0  0  0  0
   39.5385   38.7890  -14.6229 O   0  0  0  0  0  0  0  0  0  0  0  0
   42.7852   43.2930  -15.8562 C   0  0  2  0  0  0  0  0  0  0  0  0
   41.6204   44.0194  -16.2581 O   0  0  0  0  0  0  0  0  0  0  0  0
   38.0348   33.3281  -15.7218 C   0  0  2  0  0  0  0  0  0  0  0  0
   36.6222   33.6139  -15.7201 O   0  0  0  0  0  0  0  0  0  0  0  0
   36.7536   38.2418  -14.8658 C   0  0  2  0  0  0  0  0  0  0  0  0
   37.4098   38.4300  -13.6014 O   0  0  0  0  0  0  0  0  0  0  0  0
   41.5932   37.6800  -13.8726 C   0  0  0  0  0  0  0  0  0  0  0  0
   42.9315   37.9473  -13.4477 O   0  0  0  0  0  0  0  0  0  0  0  0
   42.5469   41.7862  -15.9855 C   0  0  1  0  0  0  0  0  0  0  0  0
   41.4290   41.4297  -15.1533 O   0  0  0  0  0  0  0  0  0  0  0  0
   38.3640   32.3225  -16.8281 C   0  0  0  0  0  0  0  0  0  0  0  0
   39.5307   32.7811  -17.5959 O   0  0  0  0  0  0  0  0  0  0  0  0
   35.8234   39.4260  -15.1544 C   0  0  1  0  0  0  0  0  0  0  0  0
   36.5846   40.6309  -15.2620 O   0  0  0  0  0  0  0  0  0  0  0  0
   42.2510   41.3685  -17.4265 C   0  0  0  0  0  0  0  0  0  0  0  0
   42.1008   39.9079  -17.4856 N   0  0  0  0  0  0  0  0  0  0  0  0
  1  2  1  6  0  0  0
  1  7  1  0  0  0  0
  1 30  1  0  0  0  0
  3  4  1  1  0  0  0
  3  9  1  0  0  0  0
  3 39  1  0  0  0  0
  5 10  1  0  0  0  0
  5 26  1  0  0  0  0
  5 32  1  1  0  0  0
  6 12  1  0  0  0  0
  6 36  1  0  0  0  0
  6 19  1  1  0  0  0
  7  8  1  1  0  0  0
  7 14  1  0  0  0  0
  9 16  1  0  0  0  0
 10 11  1  1  0  0  0
 10 18  1  0  0  0  0
 12 13  1  6  0  0  0
 12 20  1  0  0  0  0
 14 15  1  1  0  0  0
 14 22  1  0  0  0  0
 16 17  1  1  0  0  0
 16 24  1  0  0  0  0
 18 19  1  6  0  0  0
 18 25  1  0  0  0  0
 20 21  1  1  0  0  0
 20 27  1  0  0  0  0
 22 23  1  6  0  0  0
 22 29  1  0  0  0  0
 24  2  1  6  0  0  0
 24 31  1  0  0  0  0
 25 26  1  0  0  0  0
 25 33  1  1  0  0  0
 27 28  1  1  0  0  0
 27 35  1  0  0  0  0
 29 30  1  0  0  0  0
 29 37  1  6  0  0  0
 31 32  1  1  0  0  0
 31 39  1  0  0  0  0
 33 34  1  0  0  0  0
 35 36  1  0  0  0  0
 35 41  1  6  0  0  0
 37 38  1  0  0  0  0
 39 40  1  6  0  0  0
 41 42  1  0  0  0  0
M  END
>  <CHROM.1>
-106.80685657,-169.30478170,-154.86597750,-161.65033584,-64.43857391,-66.90435451
-107.16426518,154.75863346,177.17490813,38.98737755,38.23907670,-14.67516511
2.13886786,0.16906861,3.06209174

>  <Name>
3c44_lig

>  <RI>
0

>  <Rbt.Current_Directory>
/home/itssahil/PROJECTS/Mol_Feturizer/New_Systems/rnas/3c44

>  <Rbt.Executable>
rbdock ($Id: //depot/dev/client3/rdock/2013.1/src/exe/rbdock.cxx#4 $)

>  <Rbt.Library>
libRbt.so (2013.1, Build901 2013/11/27)

>  <Rbt.Parameter_File>
/export/apps/rDock/src/rDock_2013.1_src/data/scripts/dock_solv.prm

>  <Rbt.Receptor>
prm/pocket_docking_4.prm

>  <SCORE>
-3.11337

>  <SCORE.INTER>
-9.96832

>  <SCORE.INTER.CONST>
1

>  <SCORE.INTER.POLAR>
-1.43254

>  <SCORE.INTER.ROT>
9

>  <SCORE.INTER.SOLV>
17.3308

>  <SCORE.INTER.VDW>
-17.2473

>  <SCORE.INTER.norm>
-0.237341

>  <SCORE.INTRA>
6.85495

>  <SCORE.INTRA.DIHEDRAL>
4.35732

>  <SCORE.INTRA.DIHEDRAL.0>
14.8538

>  <SCORE.INTRA.POLAR>
0

>  <SCORE.INTRA.POLAR.0>
0

>  <SCORE.INTRA.REPUL>
0.00624223

>  <SCORE.INTRA.REPUL.0>
0

>  <SCORE.INTRA.SOLV>
-1.38176

>  <SCORE.INTRA.SOLV.lig_0>
-100.951

>  <SCORE.INTRA.VDW>
5.33595

>  <SCORE.INTRA.VDW.0>
-5.71388

>  <SCORE.INTRA.norm>
0.163213

>  <SCORE.RESTR>
0

>  <SCORE.RESTR.CAVITY>
0

>  <SCORE.RESTR.norm>
0

>  <SCORE.SYSTEM>
0

>  <SCORE.SYSTEM.CONST>
0

>  <SCORE.SYSTEM.DIHEDRAL>
0

>  <SCORE.SYSTEM.SOLV>
0

>  <SCORE.SYSTEM.norm>
0

>  <SCORE.heavy>
42

>  <SCORE.norm>
-0.0741279

>  <RMSD>
3.611

$$$$
3c44_lig
 OpenBabel11021811463D
libRbt.so/2013.1/901 2013/11/27
 42 45  0  0  0  0  0  0  0  0999 V2000
   36.8515   35.5813  -12.4385 C   0  0  2  0  0  0  0  0  0  0  0  0
   36.2426   36.3475  -13.4892 O   0  0  0  0  0  0  0  0  0  0  0  0
   32.7093   35.7575  -15.5764 C   0  0  2  0  0  0  0  0  0  0  0  0
   31.3672   35.5094  -16.1253 N   0  0  0  0  0  0  0  0  0  0  0  0
   35.4133   39.1234  -13.2024 C   0  0  1  0  0  0  0  0  0  0  0  0
   38.9734   41.3643  -13.8396 C   0  0  1  0  0  0  0  0  0  0  0  0
   37.5141   36.5372  -11.4409 C   0  0  2  0  0  0  0  0  0  0  0  0
   36.5505   37.5331  -10.9503 N   0  0  0  0  0  0  0  0  0  0  0  0
   33.1786   34.5646  -14.7387 C   0  0  0  0  0  0  0  0  0  0  0  0
   35.4889   40.2896  -14.1889 C   0  0  2  0  0  0  0  0  0  0  0  0
   35.9005   39.8170  -15.4731 O   0  0  0  0  0  0  0  0  0  0  0  0
   40.2804   40.6345  -14.1668 C   0  0  2  0  0  0  0  0  0  0  0  0
   40.4662   39.5578  -13.1843 N   0  0  0  0  0  0  0  0  0  0  0  0
   38.7050   37.2629  -12.0722 C   0  0  1  0  0  0  0  0  0  0  0  0
   39.3841   38.0187  -11.0648 O   0  0  0  0  0  0  0  0  0  0  0  0
   34.6332   34.8235  -14.3322 C   0  0  2  0  0  0  0  0  0  0  0  0
   35.1009   33.7254  -13.4729 N   0  0  0  0  0  0  0  0  0  0  0  0
   36.6367   41.0805  -13.5644 C   0  0  2  0  0  0  0  0  0  0  0  0
   37.8927   40.4168  -13.7814 O   0  0  0  0  0  0  0  0  0  0  0  0
   41.4806   41.5873  -14.0912 C   0  0  1  0  0  0  0  0  0  0  0  0
   41.4527   42.5128  -15.1809 O   0  0  0  0  0  0  0  0  0  0  0  0
   39.6688   36.2444  -12.6836 C   0  0  2  0  0  0  0  0  0  0  0  0
   40.7217   36.9294  -13.3670 O   0  0  0  0  0  0  0  0  0  0  0  0
   34.8212   36.1504  -13.5862 C   0  0  2  0  0  0  0  0  0  0  0  0
   36.2638   40.9947  -12.0928 C   0  0  2  0  0  0  0  0  0  0  0  0
   35.5484   39.7530  -11.9148 O   0  0  0  0  0  0  0  0  0  0  0  0
   41.4767   42.3731  -12.7789 C   0  0  2  0  0  0  0  0  0  0  0  0
   41.7274   41.4697  -11.6985 O   0  0  0  0  0  0  0  0  0  0  0  0
   38.9124   35.3504  -13.6675 C   0  0  2  0  0  0  0  0  0  0  0  0
   37.8263   34.6809  -12.9971 O   0  0  0  0  0  0  0  0  0  0  0  0
   34.1597   37.3494  -14.2625 C   0  0  2  0  0  0  0  0  0  0  0  0
   34.1454   38.4610  -13.3521 O   0  0  0  0  0  0  0  0  0  0  0  0
   35.3881   42.1923  -11.7181 C   0  0  0  0  0  0  0  0  0  0  0  0
   35.5934   43.2377  -12.6708 O   0  0  0  0  0  0  0  0  0  0  0  0
   40.1131   43.0474  -12.6065 C   0  0  1  0  0  0  0  0  0  0  0  0
   39.1016   42.0252  -12.5706 O   0  0  0  0  0  0  0  0  0  0  0  0
   39.9036   34.3204  -14.2153 C   0  0  0  0  0  0  0  0  0  0  0  0
   39.2458   33.4714  -15.2191 O   0  0  0  0  0  0  0  0  0  0  0  0
   32.7292   37.0120  -14.6995 C   0  0  1  0  0  0  0  0  0  0  0  0
   32.1612   38.1158  -15.4079 O   0  0  0  0  0  0  0  0  0  0  0  0
   40.0343   43.8742  -11.3225 C   0  0  0  0  0  0  0  0  0  0  0  0
   38.7967   44.6666  -11.3325 N   0  0  0  0  0  0  0  0  0  0  0  0
  1  2  1  6  0  0  0
  1  7  1  0  0  0  0
  1 30  1  0  0  0  0
  3  4  1  1  0  0  0
  3  9  1  0  0  0  0
  3 39  1  0  0  0  0
  5 10  1  0  0  0  0
  5 26  1  0  0  0  0
  5 32  1  1  0  0  0
  6 12  1  0  0  0  0
  6 36  1  0  0  0  0
  6 19  1  1  0  0  0
  7  8  1  6  0  0  0
  7 14  1  0  0  0  0
  9 16  1  0  0  0  0
 10 11  1  6  0  0  0
 10 18  1  0  0  0  0
 12 13  1  1  0  0  0
 12 20  1  0  0  0  0
 14 15  1  1  0  0  0
 14 22  1  0  0  0  0
 16 17  1  1  0  0  0
 16 24  1  0  0  0  0
 18 19  1  1  0  0  0
 18 25  1  0  0  0  0
 20 21  1  6  0  0  0
 20 27  1  0  0  0  0
 22 23  1  6  0  0  0
 22 29  1  0  0  0  0
 24  2  1  6  0  0  0
 24 31  1  0  0  0  0
 25 26  1  0  0  0  0
 25 33  1  6  0  0  0
 27 28  1  1  0  0  0
 27 35  1  0  0  0  0
 29 30  1  0  0  0  0
 29 37  1  1  0  0  0
 31 32  1  1  0  0  0
 31 39  1  0  0  0  0
 33 34  1  0  0  0  0
 35 36  1  0  0  0  0
 35 41  1  1  0  0  0
 37 38  1  0  0  0  0
 39 40  1  6  0  0  0
 41 42  1  0  0  0  0
M  END
>  <CHROM.1>
-119.50770136,93.02100408,-176.14601274,150.79860888,-79.47188284,-21.22039975
-177.25916113,76.31408842,170.58341583,37.27109522,38.67771518,-13.34773939
-2.24190722,-0.15601581,0.11912098

>  <Name>
3c44_lig

>  <RI>
224

>  <Rbt.Current_Directory>
/home/itssahil/PROJECTS/Mol_Feturizer/New_Systems/rnas/3c44

>  <Rbt.Executable>
rbdock ($Id: //depot/dev/client3/rdock/2013.1/src/exe/rbdock.cxx#4 $)

>  <Rbt.Library>
libRbt.so (2013.1, Build901 2013/11/27)

>  <Rbt.Parameter_File>
/export/apps/rDock/src/rDock_2013.1_src/data/scripts/dock_solv.prm

>  <Rbt.Receptor>
prm/pocket_docking_3.prm

>  <SCORE>
-10.282

>  <SCORE.INTER>
-17.6503

>  <SCORE.INTER.CONST>
1

>  <SCORE.INTER.POLAR>
-2.01619

>  <SCORE.INTER.ROT>
9

>  <SCORE.INTER.SOLV>
15.119

>  <SCORE.INTER.VDW>
-19.6858

>  <SCORE.INTER.norm>
-0.420244

>  <SCORE.INTRA>
6.90835

>  <SCORE.INTRA.DIHEDRAL>
7.15182

>  <SCORE.INTRA.DIHEDRAL.0>
14.8538

>  <SCORE.INTRA.POLAR>
0

>  <SCORE.INTRA.POLAR.0>
0

>  <SCORE.INTRA.REPUL>
0.00317735

>  <SCORE.INTRA.REPUL.0>
0

>  <SCORE.INTRA.SOLV>
4.16819

>  <SCORE.INTRA.SOLV.lig_0>
-100.951

>  <SCORE.INTRA.VDW>
1.23246

>  <SCORE.INTRA.VDW.0>
-5.71388

>  <SCORE.INTRA.norm>
0.164485

>  <SCORE.RESTR>
0.459867

>  <SCORE.RESTR.CAVITY>
0.459867

>  <SCORE.RESTR.norm>
0.0109492

>  <SCORE.SYSTEM>
0

>  <SCORE.SYSTEM.CONST>
0

>  <SCORE.SYSTEM.DIHEDRAL>
0

>  <SCORE.SYSTEM.SOLV>
0

>  <SCORE.SYSTEM.norm>
0

>  <SCORE.heavy>
42

>  <SCORE.norm>
-0.244811

>  <RMSD>
3.758

$$$$
3c44_lig
 OpenBabel11021811463D
libRbt.so/2013.1/901 2013/11/27
 42 45  0  0  0  0  0  0  0  0999 V2000
   36.3480   36.1019  -12.3553 C   0  0  2  0  0  0  0  0  0  0  0  0
   35.9632   36.8343  -13.5290 O   0  0  0  0  0  0  0  0  0  0  0  0
   32.6853   36.3203  -16.0151 C   0  0  2  0  0  0  0  0  0  0  0  0
   31.4059   36.1343  -16.7168 N   0  0  0  0  0  0  0  0  0  0  0  0
   35.3952   39.8181  -13.9016 C   0  0  1  0  0  0  0  0  0  0  0  0
   39.0700   41.7559  -14.6336 C   0  0  1  0  0  0  0  0  0  0  0  0
   37.2743   36.9745  -11.5018 C   0  0  2  0  0  0  0  0  0  0  0  0
   36.6441   38.2676  -11.1991 N   0  0  0  0  0  0  0  0  0  0  0  0
   32.9006   35.2105  -14.9821 C   0  0  0  0  0  0  0  0  0  0  0  0
   35.6067   40.5777  -15.2121 C   0  0  2  0  0  0  0  0  0  0  0  0
   36.1247   39.6955  -16.2096 O   0  0  0  0  0  0  0  0  0  0  0  0
   40.3841   40.9771  -14.5146 C   0  0  2  0  0  0  0  0  0  0  0  0
   40.3082   40.1234  -13.3210 N   0  0  0  0  0  0  0  0  0  0  0  0
   38.6105   37.2225  -12.2061 C   0  0  1  0  0  0  0  0  0  0  0  0
   39.4958   37.9027  -11.3111 O   0  0  0  0  0  0  0  0  0  0  0  0
   34.3104   35.3769  -14.4054 C   0  0  2  0  0  0  0  0  0  0  0  0
   34.5323   34.3636  -13.3628 N   0  0  0  0  0  0  0  0  0  0  0  0
   36.7148   41.5352  -14.7783 C   0  0  2  0  0  0  0  0  0  0  0  0
   37.9623   40.8383  -14.6261 O   0  0  0  0  0  0  0  0  0  0  0  0
   41.5798   41.9274  -14.3692 C   0  0  1  0  0  0  0  0  0  0  0  0
   41.8265   42.6114  -15.6005 O   0  0  0  0  0  0  0  0  0  0  0  0
   39.2322   35.8888  -12.6245 C   0  0  2  0  0  0  0  0  0  0  0  0
   40.4237   36.1294  -13.3777 O   0  0  0  0  0  0  0  0  0  0  0  0
   34.5531   36.7670  -13.8043 C   0  0  2  0  0  0  0  0  0  0  0  0
   36.1976   41.9565  -13.4118 C   0  0  2  0  0  0  0  0  0  0  0  0
   35.4259   40.8495  -12.8977 O   0  0  0  0  0  0  0  0  0  0  0  0
   41.3279   42.9640  -13.2730 C   0  0  2  0  0  0  0  0  0  0  0  0
   41.3017   42.3001  -12.0063 O   0  0  0  0  0  0  0  0  0  0  0  0
   38.2339   35.1036  -13.4767 C   0  0  2  0  0  0  0  0  0  0  0  0
   37.0148   34.8851  -12.7397 O   0  0  0  0  0  0  0  0  0  0  0  0
   34.1285   37.9236  -14.7070 C   0  0  2  0  0  0  0  0  0  0  0  0
   34.1258   39.1435  -13.9476 O   0  0  0  0  0  0  0  0  0  0  0  0
   35.3314   43.2094  -13.5586 C   0  0  0  0  0  0  0  0  0  0  0  0
   36.0883   44.2262  -14.2191 O   0  0  0  0  0  0  0  0  0  0  0  0
   39.9894   43.6570  -13.5414 C   0  0  1  0  0  0  0  0  0  0  0  0
   38.9508   42.6617  -13.5251 O   0  0  0  0  0  0  0  0  0  0  0  0
   38.8798   33.7614  -13.8298 C   0  0  0  0  0  0  0  0  0  0  0  0
   38.9845   32.9204  -12.6286 O   0  0  0  0  0  0  0  0  0  0  0  0
   32.7372   37.6733  -15.3008 C   0  0  1  0  0  0  0  0  0  0  0  0
   32.3978   38.7224  -16.2102 O   0  0  0  0  0  0  0  0  0  0  0  0
   39.6723   44.7279  -12.4968 C   0  0  0  0  0  0  0  0  0  0  0  0
   40.6546   45.8154  -12.6053 N   0  0  0  0  0  0  0  0  0  0  0  0
  1  2  1  6  0  0  0
  1  7  1  0  0  0  0
  1 30  1  0  0  0  0
  3  4  1  1  0  0  0
  3  9  1  0  0  0  0
  3 39  1  0  0  0  0
  5 10  1  0  0  0  0
  5 26  1  0  0  0  0
  5 32  1  6  0  0  0
  6 12  1  0  0  0  0
  6 36  1  0  0  0  0
  6 19  1  1  0  0  0
  7  8  1  6  0  0  0
  7 14  1  0  0  0  0
  9 16  1  0  0  0  0
 10 11  1  6  0  0  0
 10 18  1  0  0  0  0
 12 13  1  1  0  0  0
 12 20  1  0  0  0  0
 14 15  1  1  0  0  0
 14 22  1  0  0  0  0
 16 17  1  1  0  0  0
 16 24  1  0  0  0  0
 18 19  1  1  0  0  0
 18 25  1  0  0  0  0
 20 21  1  6  0  0  0
 20 27  1  0  0  0  0
 22 23  1  6  0  0  0
 22 29  1  0  0  0  0
 24  2  1  6  0  0  0
 24 31  1  0  0  0  0
 25 26  1  0  0  0  0
 25 33  1  6  0  0  0
 27 28  1  1  0  0  0
 27 35  1  0  0  0  0
 29 30  1  0  0  0  0
 29 37  1  1  0  0  0
 31 32  1  1  0  0  0
 31 39  1  0  0  0  0
 33 34  1  0  0  0  0
 35 36  1  0  0  0  0
 35 41  1  1  0  0  0
 37 38  1  0  0  0  0
 39 40  1  6  0  0  0
 41 42  1  0  0  0  0
M  END
>  <CHROM.1>
-133.42381617,78.81421957,-178.20494817,161.95783076,-76.43645130,-55.30769097
69.58343304,86.93432287,65.59212811,37.18391498,39.10361187,-13.78008413
-2.20208100,-0.31578423,-0.13162685

>  <Name>
3c44_lig

>  <RI>
0

>  <Rbt.Current_Directory>
/home/itssahil/PROJECTS/Mol_Feturizer/New_Systems/rnas/3c44

>  <Rbt.Executable>
rbdock ($Id: //depot/dev/client3/rdock/2013.1/src/exe/rbdock.cxx#4 $)

>  <Rbt.Library>
libRbt.so (2013.1, Build901 2013/11/27)

>  <Rbt.Parameter_File>
/export/apps/rDock/src/rDock_2013.1_src/data/scripts/dock_solv.prm

>  <Rbt.Receptor>
prm/pocket_docking_4.prm

>  <SCORE>
-18.4996

>  <SCORE.INTER>
-20.5232

>  <SCORE.INTER.CONST>
1

>  <SCORE.INTER.POLAR>
-2.13725

>  <SCORE.INTER.ROT>
9

>  <SCORE.INTER.SOLV>
16.3353

>  <SCORE.INTER.VDW>
-21.603

>  <SCORE.INTER.norm>
-0.488648

>  <SCORE.INTRA>
2.02361

>  <SCORE.INTRA.DIHEDRAL>
-0.307226

>  <SCORE.INTRA.DIHEDRAL.0>
14.8538

>  <SCORE.INTRA.POLAR>
0

>  <SCORE.INTRA.POLAR.0>
0

>  <SCORE.INTRA.REPUL>
0

>  <SCORE.INTRA.REPUL.0>
0

>  <SCORE.INTRA.SOLV>
1.44293

>  <SCORE.INTRA.SOLV.lig_0>
-100.951

>  <SCORE.INTRA.VDW>
1.45576

>  <SCORE.INTRA.VDW.0>
-5.71388

>  <SCORE.INTRA.norm>
0.0481813

>  <SCORE.RESTR>
0

>  <SCORE.RESTR.CAVITY>
0

>  <SCORE.RESTR.norm>
0

>  <SCORE.SYSTEM>
0

>  <SCORE.SYSTEM.CONST>
0

>  <SCORE.SYSTEM.DIHEDRAL>
0

>  <SCORE.SYSTEM.SOLV>
0

>  <SCORE.SYSTEM.norm>
0

>  <SCORE.heavy>
42

>  <SCORE.norm>
-0.440467

>  <RMSD>
3.790

$$$$
3c44_lig
 OpenBabel11021811463D
libRbt.so/2013.1/901 2013/11/27
 42 45  0  0  0  0  0  0  0  0999 V2000
   35.8079   36.2704  -12.9551 C   0  0  2  0  0  0  0  0  0  0  0  0
   35.6658   37.1875  -14.0508 O   0  0  0  0  0  0  0  0  0  0  0  0
   32.9750   36.5675  -17.1435 C   0  0  2  0  0  0  0  0  0  0  0  0
   31.8676   36.3762  -18.0926 N   0  0  0  0  0  0  0  0  0  0  0  0
   35.4629   40.0248  -14.6666 C   0  0  1  0  0  0  0  0  0  0  0  0
   39.0150   42.0182  -13.6949 C   0  0  1  0  0  0  0  0  0  0  0  0
   36.6830   36.9134  -11.8741 C   0  0  2  0  0  0  0  0  0  0  0  0
   36.1432   38.2202  -11.4717 N   0  0  0  0  0  0  0  0  0  0  0  0
   32.8513   35.5951  -15.9669 C   0  0  0  0  0  0  0  0  0  0  0  0
   35.4921   41.5492  -14.7865 C   0  0  2  0  0  0  0  0  0  0  0  0
   35.8602   41.9275  -16.1144 O   0  0  0  0  0  0  0  0  0  0  0  0
   40.3140   41.8095  -14.4801 C   0  0  2  0  0  0  0  0  0  0  0  0
   40.4323   40.3815  -14.8054 N   0  0  0  0  0  0  0  0  0  0  0  0
   38.1233   37.0956  -12.3593 C   0  0  1  0  0  0  0  0  0  0  0  0
   38.9337   37.5485  -11.2705 O   0  0  0  0  0  0  0  0  0  0  0  0
   34.1108   35.7413  -15.1065 C   0  0  2  0  0  0  0  0  0  0  0  0
   34.0009   34.8652  -13.9303 N   0  0  0  0  0  0  0  0  0  0  0  0
   36.6553   41.8587  -13.8462 C   0  0  2  0  0  0  0  0  0  0  0  0
   37.9081   41.4828  -14.4414 O   0  0  0  0  0  0  0  0  0  0  0  0
   41.5351   42.2323  -13.6530 C   0  0  1  0  0  0  0  0  0  0  0  0
   41.5749   43.6549  -13.5129 O   0  0  0  0  0  0  0  0  0  0  0  0
   38.6672   35.7648  -12.8822 C   0  0  2  0  0  0  0  0  0  0  0  0
   39.9711   35.9627  -13.4350 O   0  0  0  0  0  0  0  0  0  0  0  0
   34.3499   37.1800  -14.6315 C   0  0  2  0  0  0  0  0  0  0  0  0
   36.3375   40.9191  -12.6937 C   0  0  2  0  0  0  0  0  0  0  0  0
   35.6398   39.7874  -13.2577 O   0  0  0  0  0  0  0  0  0  0  0  0
   41.5001   41.6021  -12.2597 C   0  0  2  0  0  0  0  0  0  0  0  0
   41.6839   40.1892  -12.3868 O   0  0  0  0  0  0  0  0  0  0  0  0
   37.7294   35.2160  -13.9586 C   0  0  2  0  0  0  0  0  0  0  0  0
   36.4027   35.0451  -13.4220 O   0  0  0  0  0  0  0  0  0  0  0  0
   34.2463   38.2304  -15.7354 C   0  0  2  0  0  0  0  0  0  0  0  0
   34.1961   39.5389  -15.1437 O   0  0  0  0  0  0  0  0  0  0  0  0
   35.4659   41.6468  -11.6680 C   0  0  0  0  0  0  0  0  0  0  0  0
   36.2115   42.7281  -11.1043 O   0  0  0  0  0  0  0  0  0  0  0  0
   40.1491   41.9091  -11.6082 C   0  0  1  0  0  0  0  0  0  0  0  0
   39.1103   41.3462  -12.4288 O   0  0  0  0  0  0  0  0  0  0  0  0
   38.2870   33.8655  -14.4155 C   0  0  0  0  0  0  0  0  0  0  0  0
   39.5299   34.0638  -15.1750 O   0  0  0  0  0  0  0  0  0  0  0  0
   33.0004   37.9977  -16.5983 C   0  0  1  0  0  0  0  0  0  0  0  0
   32.9706   38.9352  -17.6768 O   0  0  0  0  0  0  0  0  0  0  0  0
   40.0416   41.3290  -10.1974 C   0  0  0  0  0  0  0  0  0  0  0  0
   40.8513   42.1403   -9.2778 N   0  0  0  0  0  0  0  0  0  0  0  0
  1  2  1  6  0  0  0
  1  7  1  0  0  0  0
  1 30  1  0  0  0  0
  3  4  1  6  0  0  0
  3  9  1  0  0  0  0
  3 39  1  0  0  0  0
  5 10  1  0  0  0  0
  5 26  1  0  0  0  0
  5 32  1  1  0  0  0
  6 12  1  0  0  0  0
  6 36  1  0  0  0  0
  6 19  1  6  0  0  0
  7  8  1  6  0  0  0
  7 14  1  0  0  0  0
  9 16  1  0  0  0  0
 10 11  1  6  0  0  0
 10 18  1  0  0  0  0
 12 13  1  1  0  0  0
 12 20  1  0  0  0  0
 14 15  1  1  0  0  0
 14 22  1  0  0  0  0
 16 17  1  1  0  0  0
 16 24  1  0  0  0  0
 18 19  1  6  0  0  0
 18 25  1  0  0  0  0
 20 21  1  1  0  0  0
 20 27  1  0  0  0  0
 22 23  1  6  0  0  0
 22 29  1  0  0  0  0
 24  2  1  6  0  0  0
 24 31  1  0  0  0  0
 25 26  1  0  0  0  0
 25 33  1  1  0  0  0
 27 28  1  6  0  0  0
 27 35  1  0  0  0  0
 29 30  1  0  0  0  0
 29 37  1  1  0  0  0
 31 32  1  1  0  0  0
 31 39  1  0  0  0  0
 33 34  1  0  0  0  0
 35 36  1  0  0  0  0
 35 41  1  1  0  0  0
 37 38  1  0  0  0  0
 39 40  1  6  0  0  0
 41 42  1  0  0  0  0
M  END
>  <CHROM.1>
-141.59933293,149.24017110,-170.25346740,167.99541462,-59.00888119,-64.28604284
-69.91605646,76.25871948,74.48020250,37.11489809,38.93443421,-13.76280594
-2.46976130,-0.49836455,0.01637614

>  <Name>
3c44_lig

>  <RI>
0

>  <Rbt.Current_Directory>
/home/itssahil/PROJECTS/Mol_Feturizer/New_Systems/rnas/3c44

>  <Rbt.Executable>
rbdock ($Id: //depot/dev/client3/rdock/2013.1/src/exe/rbdock.cxx#4 $)

>  <Rbt.Library>
libRbt.so (2013.1, Build901 2013/11/27)

>  <Rbt.Parameter_File>
/export/apps/rDock/src/rDock_2013.1_src/data/scripts/dock_solv.prm

>  <Rbt.Receptor>
prm/pocket_docking_5.prm

>  <SCORE>
-6.67037

>  <SCORE.INTER>
-11.7722

>  <SCORE.INTER.CONST>
1

>  <SCORE.INTER.POLAR>
-1.41952

>  <SCORE.INTER.ROT>
9

>  <SCORE.INTER.SOLV>
12.2044

>  <SCORE.INTER.VDW>
-16.7845

>  <SCORE.INTER.norm>
-0.28029

>  <SCORE.INTRA>
5.10182

>  <SCORE.INTRA.DIHEDRAL>
-2.12614

>  <SCORE.INTRA.DIHEDRAL.0>
14.8538

>  <SCORE.INTRA.POLAR>
0

>  <SCORE.INTRA.POLAR.0>
0

>  <SCORE.INTRA.REPUL>
0

>  <SCORE.INTRA.REPUL.0>
0

>  <SCORE.INTRA.SOLV>
1.3132

>  <SCORE.INTRA.SOLV.lig_0>
-100.951

>  <SCORE.INTRA.VDW>
5.50829

>  <SCORE.INTRA.VDW.0>
-5.71388

>  <SCORE.INTRA.norm>
0.121472

>  <SCORE.RESTR>
0

>  <SCORE.RESTR.CAVITY>
0

>  <SCORE.RESTR.norm>
0

>  <SCORE.SYSTEM>
0

>  <SCORE.SYSTEM.CONST>
0

>  <SCORE.SYSTEM.DIHEDRAL>
0

>  <SCORE.SYSTEM.SOLV>
0

>  <SCORE.SYSTEM.norm>
0

>  <SCORE.heavy>
42

>  <SCORE.norm>
-0.158818

>  <RMSD>
3.837

$$$$
3c44_lig
 OpenBabel11021811463D
libRbt.so/2013.1/901 2013/11/27
 42 45  0  0  0  0  0  0  0  0999 V2000
   38.2644   35.4966  -15.0465 C   0  0  2  0  0  0  0  0  0  0  0  0
   36.9363   35.4257  -15.5878 O   0  0  0  0  0  0  0  0  0  0  0  0
   34.2136   38.1313  -17.1549 C   0  0  2  0  0  0  0  0  0  0  0  0
   33.2938   39.2127  -17.5401 N   0  0  0  0  0  0  0  0  0  0  0  0
   38.1864   38.9700  -15.9309 C   0  0  1  0  0  0  0  0  0  0  0  0
   39.8411   41.4039  -12.8461 C   0  0  1  0  0  0  0  0  0  0  0  0
   38.7575   34.0782  -14.7417 C   0  0  2  0  0  0  0  0  0  0  0  0
   38.6605   33.2225  -15.9331 N   0  0  0  0  0  0  0  0  0  0  0  0
   33.8953   37.6294  -15.7435 C   0  0  0  0  0  0  0  0  0  0  0  0
   39.6827   39.1024  -15.6434 C   0  0  2  0  0  0  0  0  0  0  0  0
   40.0733   38.1587  -14.6441 O   0  0  0  0  0  0  0  0  0  0  0  0
   39.4391   41.1422  -11.3909 C   0  0  2  0  0  0  0  0  0  0  0  0
   37.9746   41.2164  -11.2962 N   0  0  0  0  0  0  0  0  0  0  0  0
   37.9554   33.4426  -13.6033 C   0  0  1  0  0  0  0  0  0  0  0  0
   38.5505   32.1904  -13.2497 O   0  0  0  0  0  0  0  0  0  0  0  0
   34.7817   36.4095  -15.4712 C   0  0  2  0  0  0  0  0  0  0  0  0
   34.5482   35.9351  -14.0989 N   0  0  0  0  0  0  0  0  0  0  0  0
   39.7044   40.5026  -15.0337 C   0  0  2  0  0  0  0  0  0  0  0  0
   39.1405   40.4936  -13.7119 O   0  0  0  0  0  0  0  0  0  0  0  0
   40.0503   42.1893  -10.4506 C   0  0  1  0  0  0  0  0  0  0  0  0
   41.4628   41.9961  -10.3392 O   0  0  0  0  0  0  0  0  0  0  0  0
   37.9558   34.3704  -12.3870 C   0  0  2  0  0  0  0  0  0  0  0  0
   37.1159   33.8249  -11.3663 O   0  0  0  0  0  0  0  0  0  0  0  0
   36.2771   36.7027  -15.6460 C   0  0  2  0  0  0  0  0  0  0  0  0
   38.7661   41.2323  -15.9819 C   0  0  2  0  0  0  0  0  0  0  0  0
   37.8261   40.2532  -16.4751 O   0  0  0  0  0  0  0  0  0  0  0  0
   39.7869   43.6069  -10.9612 C   0  0  2  0  0  0  0  0  0  0  0  0
   38.3862   43.8803  -10.8636 O   0  0  0  0  0  0  0  0  0  0  0  0
   37.4393   35.7508  -12.7958 C   0  0  2  0  0  0  0  0  0  0  0  0
   38.2582   36.2961  -13.8491 O   0  0  0  0  0  0  0  0  0  0  0  0
   36.6267   37.4266  -16.9446 C   0  0  2  0  0  0  0  0  0  0  0  0
   37.9803   37.9036  -16.8737 O   0  0  0  0  0  0  0  0  0  0  0  0
   39.5742   41.8446  -17.1280 C   0  0  0  0  0  0  0  0  0  0  0  0
   38.6831   42.5142  -18.0227 O   0  0  0  0  0  0  0  0  0  0  0  0
   40.2510   43.7061  -12.4167 C   0  0  1  0  0  0  0  0  0  0  0  0
   39.5051   42.7557  -13.1976 O   0  0  0  0  0  0  0  0  0  0  0  0
   37.5034   36.6546  -11.5620 C   0  0  0  0  0  0  0  0  0  0  0  0
   36.3373   37.5491  -11.5308 O   0  0  0  0  0  0  0  0  0  0  0  0
   35.6706   38.5992  -17.1932 C   0  0  1  0  0  0  0  0  0  0  0  0
   35.9588   39.2061  -18.4548 O   0  0  0  0  0  0  0  0  0  0  0  0
   40.0407   45.1051  -12.9973 C   0  0  0  0  0  0  0  0  0  0  0  0
   40.5591   45.1413  -14.3719 N   0  0  0  0  0  0  0  0  0  0  0  0
  1  2  1  1  0  0  0
  1  7  1  0  0  0  0
  1 30  1  0  0  0  0
  3  4  1  1  0  0  0
  3  9  1  0  0  0  0
  3 39  1  0  0  0  0
  5 10  1  0  0  0  0
  5 26  1  0  0  0  0
  5 32  1  6  0  0  0
  6 12  1  0  0  0  0
  6 36  1  0  0  0  0
  6 19  1  6  0  0  0
  7  8  1  6  0  0  0
  7 14  1  0  0  0  0
  9 16  1  0  0  0  0
 10 11  1  1  0  0  0
 10 18  1  0  0  0  0
 12 13  1  6  0  0  0
 12 20  1  0  0  0  0
 14 15  1  1  0  0  0
 14 22  1  0  0  0  0
 16 17  1  1  0  0  0
 16 24  1  0  0  0  0
 18 19  1  1  0  0  0
 18 25  1  0  0  0  0
 20 21  1  6  0  0  0
 20 27  1  0  0  0  0
 22 23  1  1  0  0  0
 22 29  1  0  0  0  0
 24  2  1  6  0  0  0
 24 31  1  0  0  0  0
 25 26  1  0  0  0  0
 25 33  1  6  0  0  0
 27 28  1  6  0  0  0
 27 35  1  0  0  0  0
 29 30  1  0  0  0  0
 29 37  1  1  0  0  0
 31 32  1  1  0  0  0
 31 39  1  0  0  0  0
 33 34  1  0  0  0  0
 35 36  1  0  0  0  0
 35 41  1  6  0  0  0
 37 38  1  0  0  0  0
 39 40  1  6  0  0  0
 41 42  1  0  0  0  0
M  END
>  <CHROM.1>
167.70826409,163.33927093,-167.11295354,143.33457118,-149.37071304,179.29836888
-142.21121716,-68.84663787,177.61105882,38.00928991,38.83101032,-14.29044386
-2.33059986,-1.06604241,-0.46970321

>  <Name>
3c44_lig

>  <RI>
0

>  <Rbt.Current_Directory>
/home/itssahil/PROJECTS/Mol_Feturizer/New_Systems/rnas/3c44

>  <Rbt.Executable>
rbdock ($Id: //depot/dev/client3/rdock/2013.1/src/exe/rbdock.cxx#4 $)

>  <Rbt.Library>
libRbt.so (2013.1, Build901 2013/11/27)

>  <Rbt.Parameter_File>
/export/apps/rDock/src/rDock_2013.1_src/data/scripts/dock_solv.prm

>  <Rbt.Receptor>
prm/pocket_docking_5.prm

>  <SCORE>
-10.31

>  <SCORE.INTER>
-10.8784

>  <SCORE.INTER.CONST>
1

>  <SCORE.INTER.POLAR>
-2.29277

>  <SCORE.INTER.ROT>
9

>  <SCORE.INTER.SOLV>
12.3679

>  <SCORE.INTER.VDW>
-13.3324

>  <SCORE.INTER.norm>
-0.259011

>  <SCORE.INTRA>
0.496453

>  <SCORE.INTRA.DIHEDRAL>
0.561486

>  <SCORE.INTRA.DIHEDRAL.0>
14.8538

>  <SCORE.INTRA.POLAR>
0

>  <SCORE.INTRA.POLAR.0>
0

>  <SCORE.INTRA.REPUL>
0.0624167

>  <SCORE.INTRA.REPUL.0>
0

>  <SCORE.INTRA.SOLV>
-2.22356

>  <SCORE.INTRA.SOLV.lig_0>
-100.951

>  <SCORE.INTRA.VDW>
1.01541

>  <SCORE.INTRA.VDW.0>
-5.71388

>  <SCORE.INTRA.norm>
0.0118203

>  <SCORE.RESTR>
0.072005

>  <SCORE.RESTR.CAVITY>
0.072005

>  <SCORE.RESTR.norm>
0.0017144

>  <SCORE.SYSTEM>
0

>  <SCORE.SYSTEM.CONST>
0

>  <SCORE.SYSTEM.DIHEDRAL>
0

>  <SCORE.SYSTEM.SOLV>
0

>  <SCORE.SYSTEM.norm>
0

>  <SCORE.heavy>
42

>  <SCORE.norm>
-0.245476

>  <RMSD>
3.869

$$$$
3c44_lig
 OpenBabel11021811463D
libRbt.so/2013.1/901 2013/11/27
 42 45  0  0  0  0  0  0  0  0999 V2000
   36.5339   36.0986  -12.2825 C   0  0  2  0  0  0  0  0  0  0  0  0
   36.0455   36.9773  -13.3078 O   0  0  0  0  0  0  0  0  0  0  0  0
   32.7402   36.2741  -15.7099 C   0  0  2  0  0  0  0  0  0  0  0  0
   31.4554   36.0181  -16.3791 N   0  0  0  0  0  0  0  0  0  0  0  0
   35.3777   39.6710  -13.2834 C   0  0  1  0  0  0  0  0  0  0  0  0
   39.0899   41.5190  -12.6405 C   0  0  1  0  0  0  0  0  0  0  0  0
   37.4239   36.8951  -11.3225 C   0  0  2  0  0  0  0  0  0  0  0  0
   36.7079   38.0647  -10.7929 N   0  0  0  0  0  0  0  0  0  0  0  0
   33.0307   35.1908  -14.6672 C   0  0  0  0  0  0  0  0  0  0  0  0
   35.6082   41.0706  -13.8551 C   0  0  2  0  0  0  0  0  0  0  0  0
   36.1048   40.9765  -15.1916 O   0  0  0  0  0  0  0  0  0  0  0  0
   40.3304   41.3744  -13.5282 C   0  0  2  0  0  0  0  0  0  0  0  0
   40.5322   39.9465  -13.8102 N   0  0  0  0  0  0  0  0  0  0  0  0
   38.7067   37.3650  -12.0130 C   0  0  1  0  0  0  0  0  0  0  0  0
   39.5724   37.9622  -11.0428 O   0  0  0  0  0  0  0  0  0  0  0  0
   34.4439   35.4315  -14.1258 C   0  0  2  0  0  0  0  0  0  0  0  0
   34.7367   34.4450  -13.0750 N   0  0  0  0  0  0  0  0  0  0  0  0
   36.7393   41.5384  -12.9414 C   0  0  2  0  0  0  0  0  0  0  0  0
   37.9693   40.8706  -13.2673 O   0  0  0  0  0  0  0  0  0  0  0  0
   41.5801   41.9227  -12.8270 C   0  0  1  0  0  0  0  0  0  0  0  0
   41.5201   43.3490  -12.7430 O   0  0  0  0  0  0  0  0  0  0  0  0
   39.4125   36.1736  -12.6632 C   0  0  2  0  0  0  0  0  0  0  0  0
   40.5497   36.6321  -13.3990 O   0  0  0  0  0  0  0  0  0  0  0  0
   34.6342   36.8400  -13.5494 C   0  0  2  0  0  0  0  0  0  0  0  0
   36.2321   41.0424  -11.5965 C   0  0  2  0  0  0  0  0  0  0  0  0
   35.4334   39.8682  -11.8584 O   0  0  0  0  0  0  0  0  0  0  0  0
   41.7122   41.3523  -11.4139 C   0  0  2  0  0  0  0  0  0  0  0  0
   41.9947   39.9530  -11.5049 O   0  0  0  0  0  0  0  0  0  0  0  0
   38.4442   35.4568  -13.6055 C   0  0  2  0  0  0  0  0  0  0  0  0
   37.2771   35.0204  -12.8811 O   0  0  0  0  0  0  0  0  0  0  0  0
   34.1353   37.9621  -14.4575 C   0  0  2  0  0  0  0  0  0  0  0  0
   34.0922   39.1915  -13.7149 O   0  0  0  0  0  0  0  0  0  0  0  0
   35.3969   42.1383  -10.9309 C   0  0  0  0  0  0  0  0  0  0  0  0
   35.2134   41.8131   -9.5512 O   0  0  0  0  0  0  0  0  0  0  0  0
   40.4012   41.5852  -10.6584 C   0  0  1  0  0  0  0  0  0  0  0  0
   39.3440   40.9113  -11.3639 O   0  0  0  0  0  0  0  0  0  0  0  0
   39.1774   34.2485  -14.1934 C   0  0  0  0  0  0  0  0  0  0  0  0
   39.4911   33.2826  -13.1305 O   0  0  0  0  0  0  0  0  0  0  0  0
   32.7443   37.6382  -15.0154 C   0  0  1  0  0  0  0  0  0  0  0  0
   32.3353   38.6569  -15.9308 O   0  0  0  0  0  0  0  0  0  0  0  0
   40.4588   41.0601   -9.2234 C   0  0  0  0  0  0  0  0  0  0  0  0
   39.1688   41.3091   -8.5650 N   0  0  0  0  0  0  0  0  0  0  0  0
  1  2  1  6  0  0  0
  1  7  1  0  0  0  0
  1 30  1  0  0  0  0
  3  4  1  1  0  0  0
  3  9  1  0  0  0  0
  3 39  1  0  0  0  0
  5 10  1  0  0  0  0
  5 26  1  0  0  0  0
  5 32  1  1  0  0  0
  6 12  1  0  0  0  0
  6 36  1  0  0  0  0
  6 19  1  6  0  0  0
  7  8  1  6  0  0  0
  7 14  1  0  0  0  0
  9 16  1  0  0  0  0
 10 11  1  6  0  0  0
 10 18  1  0  0  0  0
 12 13  1  1  0  0  0
 12 20  1  0  0  0  0
 14 15  1  1  0  0  0
 14 22  1  0  0  0  0
 16 17  1  1  0  0  0
 16 24  1  0  0  0  0
 18 19  1  6  0  0  0
 18 25  1  0  0  0  0
 20 21  1  1  0  0  0
 20 27  1  0  0  0  0
 22 23  1  6  0  0  0
 22 29  1  0  0  0  0
 24  2  1  6  0  0  0
 24 31  1  0  0  0  0
 25 26  1  0  0  0  0
 25 33  1  6  0  0  0
 27 28  1  6  0  0  0
 27 35  1  0  0  0  0
 29 30  1  0  0  0  0
 29 37  1  1  0  0  0
 31 32  1  1  0  0  0
 31 39  1  0  0  0  0
 33 34  1  0  0  0  0
 35 36  1  0  0  0  0
 35 41  1  1  0  0  0
 37 38  1  0  0  0  0
 39 40  1  6  0  0  0
 41 42  1  0  0  0  0
M  END
>  <CHROM.1>
-133.30729200,121.52935228,-148.25632251,166.42405921,-66.02471581,-165.30270481
65.10949059,65.05324284,-179.63540108,37.25642299,38.70188628,-12.80148243
-2.45141228,-0.30098250,0.21347390

>  <Name>
3c44_lig

>  <RI>
0

>  <Rbt.Current_Directory>
/home/itssahil/PROJECTS/Mol_Feturizer/New_Systems/rnas/3c44

>  <Rbt.Executable>
rbdock ($Id: //depot/dev/client3/rdock/2013.1/src/exe/rbdock.cxx#4 $)

>  <Rbt.Library>
libRbt.so (2013.1, Build901 2013/11/27)

>  <Rbt.Parameter_File>
/export/apps/rDock/src/rDock_2013.1_src/data/scripts/dock_solv.prm

>  <Rbt.Receptor>
prm/pocket_docking_5.prm

>  <SCORE>
-18.4932

>  <SCORE.INTER>
-24.949

>  <SCORE.INTER.CONST>
1

>  <SCORE.INTER.POLAR>
-2.78397

>  <SCORE.INTER.ROT>
9

>  <SCORE.INTER.SOLV>
15.4648

>  <SCORE.INTER.VDW>
-22.1077

>  <SCORE.INTER.norm>
-0.594024

>  <SCORE.INTRA>
6.45581

>  <SCORE.INTRA.DIHEDRAL>
4.84433

>  <SCORE.INTRA.DIHEDRAL.0>
14.8538

>  <SCORE.INTRA.POLAR>
0

>  <SCORE.INTRA.POLAR.0>
0

>  <SCORE.INTRA.REPUL>
0.0281857

>  <SCORE.INTRA.REPUL.0>
0

>  <SCORE.INTRA.SOLV>
4.09042

>  <SCORE.INTRA.SOLV.lig_0>
-100.951

>  <SCORE.INTRA.VDW>
1.84751

>  <SCORE.INTRA.VDW.0>
-5.71388

>  <SCORE.INTRA.norm>
0.15371

>  <SCORE.RESTR>
0

>  <SCORE.RESTR.CAVITY>
0

>  <SCORE.RESTR.norm>
0

>  <SCORE.SYSTEM>
0

>  <SCORE.SYSTEM.CONST>
0

>  <SCORE.SYSTEM.DIHEDRAL>
0

>  <SCORE.SYSTEM.SOLV>
0

>  <SCORE.SYSTEM.norm>
0

>  <SCORE.heavy>
42

>  <SCORE.norm>
-0.440314

>  <RMSD>
3.876

$$$$
3c44_lig
 OpenBabel11021811463D
libRbt.so/2013.1/901 2013/11/27
 42 45  0  0  0  0  0  0  0  0999 V2000
   36.9685   34.3973  -15.7350 C   0  0  2  0  0  0  0  0  0  0  0  0
   36.5903   35.7434  -16.0620 O   0  0  0  0  0  0  0  0  0  0  0  0
   33.6027   37.0648  -18.6149 C   0  0  2  0  0  0  0  0  0  0  0  0
   32.4131   37.4016  -19.4120 N   0  0  0  0  0  0  0  0  0  0  0  0
   35.0512   38.9309  -14.6150 C   0  0  1  0  0  0  0  0  0  0  0  0
   37.9256   40.8516  -12.8087 C   0  0  1  0  0  0  0  0  0  0  0  0
   36.4071   34.0407  -14.3546 C   0  0  2  0  0  0  0  0  0  0  0  0
   34.9550   34.2643  -14.3058 N   0  0  0  0  0  0  0  0  0  0  0  0
   33.8535   35.5542  -18.6315 C   0  0  0  0  0  0  0  0  0  0  0  0
   36.5578   38.9812  -14.8734 C   0  0  2  0  0  0  0  0  0  0  0  0
   37.2612   38.3976  -13.7750 O   0  0  0  0  0  0  0  0  0  0  0  0
   37.7554   41.2910  -11.3507 C   0  0  2  0  0  0  0  0  0  0  0  0
   37.2110   42.6558  -11.3406 N   0  0  0  0  0  0  0  0  0  0  0  0
   37.0768   34.8639  -13.2515 C   0  0  1  0  0  0  0  0  0  0  0  0
   36.6382   34.3874  -11.9756 O   0  0  0  0  0  0  0  0  0  0  0  0
   35.1847   35.2944  -17.9185 C   0  0  2  0  0  0  0  0  0  0  0  0
   35.4307   33.8456  -17.8601 N   0  0  0  0  0  0  0  0  0  0  0  0
   36.7726   40.4932  -14.8480 C   0  0  2  0  0  0  0  0  0  0  0  0
   36.6770   41.0009  -13.5070 O   0  0  0  0  0  0  0  0  0  0  0  0
   39.0996   41.2879  -10.6109 C   0  0  1  0  0  0  0  0  0  0  0  0
   39.5492   39.9472  -10.3980 O   0  0  0  0  0  0  0  0  0  0  0  0
   38.5972   34.7280  -13.3528 C   0  0  2  0  0  0  0  0  0  0  0  0
   39.2211   35.5839  -12.3920 O   0  0  0  0  0  0  0  0  0  0  0  0
   35.2233   35.8609  -16.4936 C   0  0  2  0  0  0  0  0  0  0  0  0
   35.5701   40.9574  -15.6545 C   0  0  2  0  0  0  0  0  0  0  0  0
   34.5249   39.9833  -15.4445 O   0  0  0  0  0  0  0  0  0  0  0  0
   40.1660   42.0436  -11.4055 C   0  0  2  0  0  0  0  0  0  0  0  0
   39.8266   43.4329  -11.4294 O   0  0  0  0  0  0  0  0  0  0  0  0
   39.0531   35.1154  -14.7604 C   0  0  2  0  0  0  0  0  0  0  0  0
   38.4037   34.2817  -15.7404 O   0  0  0  0  0  0  0  0  0  0  0  0
   34.7494   37.3085  -16.3811 C   0  0  2  0  0  0  0  0  0  0  0  0
   34.5506   37.6377  -14.9966 O   0  0  0  0  0  0  0  0  0  0  0  0
   35.9513   41.0445  -17.1339 C   0  0  0  0  0  0  0  0  0  0  0  0
   37.0690   41.9237  -17.2777 O   0  0  0  0  0  0  0  0  0  0  0  0
   40.2181   41.4813  -12.8286 C   0  0  1  0  0  0  0  0  0  0  0  0
   38.9281   41.6658  -13.4378 O   0  0  0  0  0  0  0  0  0  0  0  0
   40.5697   34.9181  -14.8279 C   0  0  0  0  0  0  0  0  0  0  0  0
   40.9055   33.5059  -14.5959 O   0  0  0  0  0  0  0  0  0  0  0  0
   33.4471   37.5212  -17.1621 C   0  0  1  0  0  0  0  0  0  0  0  0
   33.0699   38.8992  -17.1176 O   0  0  0  0  0  0  0  0  0  0  0  0
   41.2794   42.1725  -13.6856 C   0  0  0  0  0  0  0  0  0  0  0  0
   41.3132   41.5441  -15.0136 N   0  0  0  0  0  0  0  0  0  0  0  0
  1  2  1  1  0  0  0
  1  7  1  0  0  0  0
  1 30  1  0  0  0  0
  3  4  1  6  0  0  0
  3  9  1  0  0  0  0
  3 39  1  0  0  0  0
  5 10  1  0  0  0  0
  5 26  1  0  0  0  0
  5 32  1  6  0  0  0
  6 12  1  0  0  0  0
  6 36  1  0  0  0  0
  6 19  1  6  0  0  0
  7  8  1  6  0  0  0
  7 14  1  0  0  0  0
  9 16  1  0  0  0  0
 10 11  1  1  0  0  0
 10 18  1  0  0  0  0
 12 13  1  6  0  0  0
 12 20  1  0  0  0  0
 14 15  1  1  0  0  0
 14 22  1  0  0  0  0
 16 17  1  1  0  0  0
 16 24  1  0  0  0  0
 18 19  1  1  0  0  0
 18 25  1  0  0  0  0
 20 21  1  6  0  0  0
 20 27  1  0  0  0  0
 22 23  1  1  0  0  0
 22 29  1  0  0  0  0
 24  2  1  6  0  0  0
 24 31  1  0  0  0  0
 25 26  1  0  0  0  0
 25 33  1  6  0  0  0
 27 28  1  6  0  0  0
 27 35  1  0  0  0  0
 29 30  1  0  0  0  0
 29 37  1  1  0  0  0
 31 32  1  1  0  0  0
 31 39  1  0  0  0  0
 33 34  1  0  0  0  0
 35 36  1  0  0  0  0
 35 41  1  6  0  0  0
 37 38  1  0  0  0  0
 39 40  1  6  0  0  0
 41 42  1  0  0  0  0
M  END
>  <CHROM.1>
-77.48876714,-60.24843318,-175.20033840,83.40483074,-74.52904378,-56.92667698
61.68395936,136.85276748,177.51808480,37.06137003,38.16165238,-14.67797369
-2.22395994,-0.71331263,0.13479664

>  <Name>
3c44_lig

>  <RI>
0

>  <Rbt.Current_Directory>
/home/itssahil/PROJECTS/Mol_Feturizer/New_Systems/rnas/3c44

>  <Rbt.Executable>
rbdock ($Id: //depot/dev/client3/rdock/2013.1/src/exe/rbdock.cxx#4 $)

>  <Rbt.Library>
libRbt.so (2013.1, Build901 2013/11/27)

>  <Rbt.Parameter_File>
/export/apps/rDock/src/rDock_2013.1_src/data/scripts/dock_solv.prm

>  <Rbt.Receptor>
prm/pocket_docking_7.prm

>  <SCORE>
-10.4873

>  <SCORE.INTER>
-12.4149

>  <SCORE.INTER.CONST>
1

>  <SCORE.INTER.POLAR>
-2.38185

>  <SCORE.INTER.ROT>
9

>  <SCORE.INTER.SOLV>
10.8046

>  <SCORE.INTER.VDW>
-13.5386

>  <SCORE.INTER.norm>
-0.295593

>  <SCORE.INTRA>
1.92763

>  <SCORE.INTRA.DIHEDRAL>
-3.75126

>  <SCORE.INTRA.DIHEDRAL.0>
14.8538

>  <SCORE.INTRA.POLAR>
0

>  <SCORE.INTRA.POLAR.0>
0

>  <SCORE.INTRA.REPUL>
0

>  <SCORE.INTRA.REPUL.0>
0

>  <SCORE.INTRA.SOLV>
0.319481

>  <SCORE.INTRA.SOLV.lig_0>
-100.951

>  <SCORE.INTRA.VDW>
3.64352

>  <SCORE.INTRA.VDW.0>
-5.71388

>  <SCORE.INTRA.norm>
0.045896

>  <SCORE.RESTR>
0

>  <SCORE.RESTR.CAVITY>
0

>  <SCORE.RESTR.norm>
0

>  <SCORE.SYSTEM>
0

>  <SCORE.SYSTEM.CONST>
0

>  <SCORE.SYSTEM.DIHEDRAL>
0

>  <SCORE.SYSTEM.SOLV>
0

>  <SCORE.SYSTEM.norm>
0

>  <SCORE.heavy>
42

>  <SCORE.norm>
-0.249697

>  <RMSD>
3.904

$$$$
3c44_lig
 OpenBabel11021811463D
libRbt.so/2013.1/901 2013/11/27
 42 45  0  0  0  0  0  0  0  0999 V2000
   37.7981   36.3812  -11.9265 C   0  0  2  0  0  0  0  0  0  0  0  0
   36.8688   37.1034  -12.7490 O   0  0  0  0  0  0  0  0  0  0  0  0
   33.6405   35.2849  -14.6092 C   0  0  2  0  0  0  0  0  0  0  0  0
   32.4191   34.6074  -15.0711 N   0  0  0  0  0  0  0  0  0  0  0  0
   35.3178   39.5657  -12.8378 C   0  0  1  0  0  0  0  0  0  0  0  0
   37.8570   42.8885  -13.4735 C   0  0  1  0  0  0  0  0  0  0  0  0
   38.7811   37.3714  -11.2932 C   0  0  2  0  0  0  0  0  0  0  0  0
   38.0640   38.4300  -10.5678 N   0  0  0  0  0  0  0  0  0  0  0  0
   34.4093   34.3992  -13.6246 C   0  0  0  0  0  0  0  0  0  0  0  0
   34.7509   40.8904  -13.3502 C   0  0  2  0  0  0  0  0  0  0  0  0
   34.7642   40.9071  -14.7790 O   0  0  0  0  0  0  0  0  0  0  0  0
   39.0201   42.8141  -14.4682 C   0  0  2  0  0  0  0  0  0  0  0  0
   39.7301   41.5456  -14.2539 N   0  0  0  0  0  0  0  0  0  0  0  0
   39.6834   38.0131  -12.3502 C   0  0  1  0  0  0  0  0  0  0  0  0
   40.6827   38.8038  -11.6994 O   0  0  0  0  0  0  0  0  0  0  0  0
   35.7370   35.0961  -13.3089 C   0  0  2  0  0  0  0  0  0  0  0  0
   36.4785   34.3034  -12.3165 N   0  0  0  0  0  0  0  0  0  0  0  0
   35.8262   41.8459  -12.8367 C   0  0  2  0  0  0  0  0  0  0  0  0
   37.0347   41.7155  -13.6034 O   0  0  0  0  0  0  0  0  0  0  0  0
   40.0028   43.9737  -14.2588 C   0  0  1  0  0  0  0  0  0  0  0  0
   39.4159   45.2077  -14.6804 O   0  0  0  0  0  0  0  0  0  0  0  0
   40.3579   36.9245  -13.1870 C   0  0  2  0  0  0  0  0  0  0  0  0
   41.1123   37.5275  -14.2416 O   0  0  0  0  0  0  0  0  0  0  0  0
   35.5542   36.5199  -12.7687 C   0  0  2  0  0  0  0  0  0  0  0  0
   36.0478   41.2886  -11.4395 C   0  0  2  0  0  0  0  0  0  0  0  0
   35.7611   39.8747  -11.5034 O   0  0  0  0  0  0  0  0  0  0  0  0
   40.4022   44.0967  -12.7874 C   0  0  2  0  0  0  0  0  0  0  0  0
   41.1846   42.9557  -12.4240 O   0  0  0  0  0  0  0  0  0  0  0  0
   39.2928   36.0003  -13.7790 C   0  0  2  0  0  0  0  0  0  0  0  0
   38.5030   35.4132  -12.7261 O   0  0  0  0  0  0  0  0  0  0  0  0
   34.5977   37.3837  -13.5881 C   0  0  2  0  0  0  0  0  0  0  0  0
   34.2774   38.5727  -12.8475 O   0  0  0  0  0  0  0  0  0  0  0  0
   35.1135   41.9950  -10.4547 C   0  0  0  0  0  0  0  0  0  0  0  0
   35.5051   41.6651   -9.1203 O   0  0  0  0  0  0  0  0  0  0  0  0
   39.1347   44.1705  -11.9320 C   0  0  1  0  0  0  0  0  0  0  0  0
   38.3772   42.9648  -12.1367 O   0  0  0  0  0  0  0  0  0  0  0  0
   40.0151   34.9032  -14.5652 C   0  0  0  0  0  0  0  0  0  0  0  0
   40.2298   33.7274  -13.7094 O   0  0  0  0  0  0  0  0  0  0  0  0
   33.3146   36.6141  -13.9234 C   0  0  1  0  0  0  0  0  0  0  0  0
   32.4740   37.4076  -14.7641 O   0  0  0  0  0  0  0  0  0  0  0  0
   39.4491   44.3167  -10.4426 C   0  0  0  0  0  0  0  0  0  0  0  0
   39.9736   45.6659  -10.1891 N   0  0  0  0  0  0  0  0  0  0  0  0
  1  2  1  6  0  0  0
  1  7  1  0  0  0  0
  1 30  1  0  0  0  0
  3  4  1  1  0  0  0
  3  9  1  0  0  0  0
  3 39  1  0  0  0  0
  5 10  1  0  0  0  0
  5 26  1  0  0  0  0
  5 32  1  1  0  0  0
  6 12  1  0  0  0  0
  6 36  1  0  0  0  0
  6 19  1  1  0  0  0
  7  8  1  6  0  0  0
  7 14  1  0  0  0  0
  9 16  1  0  0  0  0
 10 11  1  6  0  0  0
 10 18  1  0  0  0  0
 12 13  1  1  0  0  0
 12 20  1  0  0  0  0
 14 15  1  1  0  0  0
 14 22  1  0  0  0  0
 16 17  1  1  0  0  0
 16 24  1  0  0  0  0
 18 19  1  6  0  0  0
 18 25  1  0  0  0  0
 20 21  1  1  0  0  0
 20 27  1  0  0  0  0
 22 23  1  6  0  0  0
 22 29  1  0  0  0  0
 24  2  1  6  0  0  0
 24 31  1  0  0  0  0
 25 26  1  0  0  0  0
 25 33  1  1  0  0  0
 27 28  1  1  0  0  0
 27 35  1  0  0  0  0
 29 30  1  0  0  0  0
 29 37  1  1  0  0  0
 31 32  1  1  0  0  0
 31 39  1  0  0  0  0
 33 34  1  0  0  0  0
 35 36  1  0  0  0  0
 35 41  1  1  0  0  0
 37 38  1  0  0  0  0
 39 40  1  6  0  0  0
 41 42  1  0  0  0  0
M  END
>  <CHROM.1>
-146.61905315,124.82006847,-171.08207432,159.16950702,-59.38858952,-168.61843726
93.34299242,76.32386868,71.35033728,37.37124685,39.32397019,-12.86779554
-1.95338102,-0.03509807,0.13454201

>  <Name>
3c44_lig

>  <RI>
0

>  <Rbt.Current_Directory>
/home/itssahil/PROJECTS/Mol_Feturizer/New_Systems/rnas/3c44

>  <Rbt.Executable>
rbdock ($Id: //depot/dev/client3/rdock/2013.1/src/exe/rbdock.cxx#4 $)

>  <Rbt.Library>
libRbt.so (2013.1, Build901 2013/11/27)

>  <Rbt.Parameter_File>
/export/apps/rDock/src/rDock_2013.1_src/data/scripts/dock_solv.prm

>  <Rbt.Receptor>
prm/pocket_docking_4.prm

>  <SCORE>
-16.7101

>  <SCORE.INTER>
-24.8948

>  <SCORE.INTER.CONST>
1

>  <SCORE.INTER.POLAR>
-2.30497

>  <SCORE.INTER.ROT>
9

>  <SCORE.INTER.SOLV>
16.3142

>  <SCORE.INTER.VDW>
-23.9513

>  <SCORE.INTER.norm>
-0.592732

>  <SCORE.INTRA>
8.18469

>  <SCORE.INTRA.DIHEDRAL>
4.15417

>  <SCORE.INTRA.DIHEDRAL.0>
14.8538

>  <SCORE.INTRA.POLAR>
0

>  <SCORE.INTRA.POLAR.0>
0

>  <SCORE.INTRA.REPUL>
0.0842687

>  <SCORE.INTRA.REPUL.0>
0

>  <SCORE.INTRA.SOLV>
0.114993

>  <SCORE.INTRA.SOLV.lig_0>
-100.951

>  <SCORE.INTRA.VDW>
5.62877

>  <SCORE.INTRA.VDW.0>
-5.71388

>  <SCORE.INTRA.norm>
0.194874

>  <SCORE.RESTR>
0

>  <SCORE.RESTR.CAVITY>
0

>  <SCORE.RESTR.norm>
0

>  <SCORE.SYSTEM>
0

>  <SCORE.SYSTEM.CONST>
0

>  <SCORE.SYSTEM.DIHEDRAL>
0

>  <SCORE.SYSTEM.SOLV>
0

>  <SCORE.SYSTEM.norm>
0

>  <SCORE.heavy>
42

>  <SCORE.norm>
-0.397859

>  <RMSD>
3.959

$$$$
3c44_lig
 OpenBabel11021811463D
libRbt.so/2013.1/901 2013/11/27
 42 45  0  0  0  0  0  0  0  0999 V2000
   36.4661   36.2229  -12.2074 C   0  0  2  0  0  0  0  0  0  0  0  0
   36.0173   36.8919  -13.3960 O   0  0  0  0  0  0  0  0  0  0  0  0
   32.6638   36.1692  -15.7243 C   0  0  2  0  0  0  0  0  0  0  0  0
   31.3645   35.9157  -16.3657 N   0  0  0  0  0  0  0  0  0  0  0  0
   35.3937   39.7617  -13.7612 C   0  0  1  0  0  0  0  0  0  0  0  0
   39.0966   41.5370  -13.9416 C   0  0  1  0  0  0  0  0  0  0  0  0
   37.2959   37.1987  -11.3664 C   0  0  2  0  0  0  0  0  0  0  0  0
   36.5382   38.4278  -11.0904 N   0  0  0  0  0  0  0  0  0  0  0  0
   32.9465   35.1202  -14.6450 C   0  0  0  0  0  0  0  0  0  0  0  0
   35.7198   40.4477  -15.0886 C   0  0  2  0  0  0  0  0  0  0  0  0
   36.2680   39.4997  -16.0064 O   0  0  0  0  0  0  0  0  0  0  0  0
   40.4265   41.0651  -14.5386 C   0  0  2  0  0  0  0  0  0  0  0  0
   40.6261   39.6578  -14.1658 N   0  0  0  0  0  0  0  0  0  0  0  0
   38.6049   37.5659  -12.0698 C   0  0  1  0  0  0  0  0  0  0  0  0
   39.4127   38.3471  -11.1840 O   0  0  0  0  0  0  0  0  0  0  0  0
   34.3720   35.3509  -14.1323 C   0  0  2  0  0  0  0  0  0  0  0  0
   34.6592   34.3990  -13.0486 N   0  0  0  0  0  0  0  0  0  0  0  0
   36.8328   41.3860  -14.6264 C   0  0  2  0  0  0  0  0  0  0  0  0
   38.0400   40.6542  -14.3579 O   0  0  0  0  0  0  0  0  0  0  0  0
   41.6005   41.8923  -13.9985 C   0  0  1  0  0  0  0  0  0  0  0  0
   41.5643   43.2183  -14.5325 O   0  0  0  0  0  0  0  0  0  0  0  0
   39.3588   36.2935  -12.4608 C   0  0  2  0  0  0  0  0  0  0  0  0
   40.5248   36.6381  -13.2135 O   0  0  0  0  0  0  0  0  0  0  0  0
   34.6001   36.7759  -13.6129 C   0  0  2  0  0  0  0  0  0  0  0  0
   36.2435   41.8922  -13.3193 C   0  0  2  0  0  0  0  0  0  0  0  0
   35.3979   40.8397  -12.8070 O   0  0  0  0  0  0  0  0  0  0  0  0
   41.5575   41.9760  -12.4718 C   0  0  2  0  0  0  0  0  0  0  0  0
   41.8160   40.6775  -11.9303 O   0  0  0  0  0  0  0  0  0  0  0  0
   38.4487   35.3975  -13.3024 C   0  0  2  0  0  0  0  0  0  0  0  0
   37.2531   35.0719  -12.5663 O   0  0  0  0  0  0  0  0  0  0  0  0
   34.1118   37.8731  -14.5565 C   0  0  2  0  0  0  0  0  0  0  0  0
   34.1052   39.1305  -13.8610 O   0  0  0  0  0  0  0  0  0  0  0  0
   35.4374   43.1659  -13.5829 C   0  0  0  0  0  0  0  0  0  0  0  0
   36.2884   44.1403  -14.1906 O   0  0  0  0  0  0  0  0  0  0  0  0
   40.1745   42.4702  -12.0391 C   0  0  1  0  0  0  0  0  0  0  0  0
   39.1894   41.5327  -12.5081 O   0  0  0  0  0  0  0  0  0  0  0  0
   39.2271   34.1201  -13.6278 C   0  0  0  0  0  0  0  0  0  0  0  0
   40.3363   34.4247  -14.5432 O   0  0  0  0  0  0  0  0  0  0  0  0
   32.7065   37.5583  -15.0827 C   0  0  1  0  0  0  0  0  0  0  0  0
   32.3058   38.5500  -16.0308 O   0  0  0  0  0  0  0  0  0  0  0  0
   40.0561   42.6021  -10.5202 C   0  0  0  0  0  0  0  0  0  0  0  0
   38.7341   43.1486  -10.1838 N   0  0  0  0  0  0  0  0  0  0  0  0
  1  2  1  6  0  0  0
  1  7  1  0  0  0  0
  1 30  1  0  0  0  0
  3  4  1  1  0  0  0
  3  9  1  0  0  0  0
  3 39  1  0  0  0  0
  5 10  1  0  0  0  0
  5 26  1  0  0  0  0
  5 32  1  6  0  0  0
  6 12  1  0  0  0  0
  6 36  1  0  0  0  0
  6 19  1  1  0  0  0
  7  8  1  6  0  0  0
  7 14  1  0  0  0  0
  9 16  1  0  0  0  0
 10 11  1  6  0  0  0
 10 18  1  0  0  0  0
 12 13  1  1  0  0  0
 12 20  1  0  0  0  0
 14 15  1  1  0  0  0
 14 22  1  0  0  0  0
 16 17  1  1  0  0  0
 16 24  1  0  0  0  0
 18 19  1  1  0  0  0
 18 25  1  0  0  0  0
 20 21  1  6  0  0  0
 20 27  1  0  0  0  0
 22 23  1  6  0  0  0
 22 29  1  0  0  0  0
 24  2  1  6  0  0  0
 24 31  1  0  0  0  0
 25 26  1  0  0  0  0
 25 33  1  6  0  0  0
 27 28  1  1  0  0  0
 27 35  1  0  0  0  0
 29 30  1  0  0  0  0
 29 37  1  1  0  0  0
 31 32  1  1  0  0  0
 31 39  1  0  0  0  0
 33 34  1  0  0  0  0
 35 36  1  0  0  0  0
 35 41  1  1  0  0  0
 37 38  1  0  0  0  0
 39 40  1  6  0  0  0
 41 42  1  0  0  0  0
M  END
>  <CHROM.1>
-128.33402579,79.00816817,-141.98958242,179.13102030,-76.00177550,-57.53755452
-68.24249066,79.88306115,176.92264494,37.25998107,38.94547369,-13.49606029
-2.40883356,-0.30549572,-0.03379551

>  <Name>
3c44_lig

>  <RI>
0

>  <Rbt.Current_Directory>
/home/itssahil/PROJECTS/Mol_Feturizer/New_Systems/rnas/3c44

>  <Rbt.Executable>
rbdock ($Id: //depot/dev/client3/rdock/2013.1/src/exe/rbdock.cxx#4 $)

>  <Rbt.Library>
libRbt.so (2013.1, Build901 2013/11/27)

>  <Rbt.Parameter_File>
/export/apps/rDock/src/rDock_2013.1_src/data/scripts/dock_solv.prm

>  <Rbt.Receptor>
prm/pocket_docking_6.prm

>  <SCORE>
-17.9988

>  <SCORE.INTER>
-21.2391

>  <SCORE.INTER.CONST>
1

>  <SCORE.INTER.POLAR>
-2.06477

>  <SCORE.INTER.ROT>
9

>  <SCORE.INTER.SOLV>
14.6698

>  <SCORE.INTER.VDW>
-21.7668

>  <SCORE.INTER.norm>
-0.505694

>  <SCORE.INTRA>
3.24036

>  <SCORE.INTRA.DIHEDRAL>
2.41769

>  <SCORE.INTRA.DIHEDRAL.0>
14.8538

>  <SCORE.INTRA.POLAR>
0

>  <SCORE.INTRA.POLAR.0>
0

>  <SCORE.INTRA.REPUL>
0.0674198

>  <SCORE.INTRA.REPUL.0>
0

>  <SCORE.INTRA.SOLV>
2.09507

>  <SCORE.INTRA.SOLV.lig_0>
-100.951

>  <SCORE.INTRA.VDW>
0.646877

>  <SCORE.INTRA.VDW.0>
-5.71388

>  <SCORE.INTRA.norm>
0.0771514

>  <SCORE.RESTR>
0

>  <SCORE.RESTR.CAVITY>
0

>  <SCORE.RESTR.norm>
0

>  <SCORE.SYSTEM>
0

>  <SCORE.SYSTEM.CONST>
0

>  <SCORE.SYSTEM.DIHEDRAL>
0

>  <SCORE.SYSTEM.SOLV>
0

>  <SCORE.SYSTEM.norm>
0

>  <SCORE.heavy>
42

>  <SCORE.norm>
-0.428543

>  <RMSD>
3.974

$$$$
3c44_lig
 OpenBabel11021811463D
libRbt.so/2013.1/901 2013/11/27
 42 45  0  0  0  0  0  0  0  0999 V2000
   37.8364   36.5688  -11.8073 C   0  0  2  0  0  0  0  0  0  0  0  0
   36.9677   37.2647  -12.7144 O   0  0  0  0  0  0  0  0  0  0  0  0
   33.7117   35.5712  -14.6431 C   0  0  2  0  0  0  0  0  0  0  0  0
   32.4773   34.9369  -15.1307 N   0  0  0  0  0  0  0  0  0  0  0  0
   35.5427   39.6867  -12.6234 C   0  0  1  0  0  0  0  0  0  0  0  0
   38.5651   42.5307  -12.5243 C   0  0  1  0  0  0  0  0  0  0  0  0
   38.7165   37.5876  -11.0756 C   0  0  2  0  0  0  0  0  0  0  0  0
   37.8945   38.6149  -10.4200 N   0  0  0  0  0  0  0  0  0  0  0  0
   34.4437   34.6470  -13.6657 C   0  0  0  0  0  0  0  0  0  0  0  0
   35.2121   41.0588  -13.2124 C   0  0  2  0  0  0  0  0  0  0  0  0
   35.4665   41.0608  -14.6185 O   0  0  0  0  0  0  0  0  0  0  0  0
   38.4136   43.9161  -13.1611 C   0  0  2  0  0  0  0  0  0  0  0  0
   38.4751   43.7621  -14.6211 N   0  0  0  0  0  0  0  0  0  0  0  0
   39.6955   38.2684  -12.0355 C   0  0  1  0  0  0  0  0  0  0  0  0
   40.5972   39.0882  -11.2857 O   0  0  0  0  0  0  0  0  0  0  0  0
   35.7866   35.3004  -13.3227 C   0  0  2  0  0  0  0  0  0  0  0  0
   36.4938   34.4698  -12.3363 N   0  0  0  0  0  0  0  0  0  0  0  0
   36.2805   41.9008  -12.5177 C   0  0  2  0  0  0  0  0  0  0  0  0
   37.5798   41.6371  -13.0719 O   0  0  0  0  0  0  0  0  0  0  0  0
   39.5399   44.8572  -12.7139 C   0  0  1  0  0  0  0  0  0  0  0  0
   39.3754   45.2147  -11.3391 O   0  0  0  0  0  0  0  0  0  0  0  0
   40.4872   37.2104  -12.8062 C   0  0  2  0  0  0  0  0  0  0  0  0
   41.3202   37.8474  -13.7785 O   0  0  0  0  0  0  0  0  0  0  0  0
   35.6376   36.7192  -12.7593 C   0  0  2  0  0  0  0  0  0  0  0  0
   36.2048   41.3362  -11.1078 C   0  0  2  0  0  0  0  0  0  0  0  0
   35.7859   39.9597  -11.2310 O   0  0  0  0  0  0  0  0  0  0  0  0
   40.9091   44.1984  -12.8899 C   0  0  2  0  0  0  0  0  0  0  0  0
   41.1703   44.0418  -14.2876 O   0  0  0  0  0  0  0  0  0  0  0  0
   39.5189   36.2544  -13.5046 C   0  0  2  0  0  0  0  0  0  0  0  0
   38.6504   35.6321  -12.5374 O   0  0  0  0  0  0  0  0  0  0  0  0
   34.7155   37.6239  -13.5740 C   0  0  2  0  0  0  0  0  0  0  0  0
   34.4201   38.8084  -12.8160 O   0  0  0  0  0  0  0  0  0  0  0  0
   35.1981   42.1459  -10.2878 C   0  0  0  0  0  0  0  0  0  0  0  0
   35.6838   43.4819  -10.1384 O   0  0  0  0  0  0  0  0  0  0  0  0
   40.8994   42.8359  -12.1918 C   0  0  1  0  0  0  0  0  0  0  0  0
   39.8802   42.0216  -12.7981 O   0  0  0  0  0  0  0  0  0  0  0  0
   40.3535   35.1892  -14.2203 C   0  0  0  0  0  0  0  0  0  0  0  0
   41.0383   35.7795  -15.3795 O   0  0  0  0  0  0  0  0  0  0  0  0
   33.4154   36.8970  -13.9375 C   0  0  1  0  0  0  0  0  0  0  0  0
   32.6074   37.7286  -14.7733 O   0  0  0  0  0  0  0  0  0  0  0  0
   42.2451   42.1184  -12.3038 C   0  0  0  0  0  0  0  0  0  0  0  0
   42.3493   41.1158  -11.2345 N   0  0  0  0  0  0  0  0  0  0  0  0
  1  2  1  6  0  0  0
  1  7  1  0  0  0  0
  1 30  1  0  0  0  0
  3  4  1  1  0  0  0
  3  9  1  0  0  0  0
  3 39  1  0  0  0  0
  5 10  1  0  0  0  0
  5 26  1  0  0  0  0
  5 32  1  1  0  0  0
  6 12  1  0  0  0  0
  6 36  1  0  0  0  0
  6 19  1  6  0  0  0
  7  8  1  6  0  0  0
  7 14  1  0  0  0  0
  9 16  1  0  0  0  0
 10 11  1  6  0  0  0
 10 18  1  0  0  0  0
 12 13  1  6  0  0  0
 12 20  1  0  0  0  0
 14 15  1  1  0  0  0
 14 22  1  0  0  0  0
 16 17  1  1  0  0  0
 16 24  1  0  0  0  0
 18 19  1  6  0  0  0
 18 25  1  0  0  0  0
 20 21  1  1  0  0  0
 20 27  1  0  0  0  0
 22 23  1  6  0  0  0
 22 29  1  0  0  0  0
 24  2  1  6  0  0  0
 24 31  1  0  0  0  0
 25 26  1  0  0  0  0
 25 33  1  1  0  0  0
 27 28  1  6  0  0  0
 27 35  1  0  0  0  0
 29 30  1  0  0  0  0
 29 37  1  1  0  0  0
 31 32  1  1  0  0  0
 31 39  1  0  0  0  0
 33 34  1  0  0  0  0
 35 36  1  0  0  0  0
 35 41  1  6  0  0  0
 37 38  1  0  0  0  0
 39 40  1  6  0  0  0
 41 42  1  0  0  0  0
M  END
>  <CHROM.1>
-140.41958860,121.18265825,-75.81722961,173.68215749,-64.33502678,-65.03944744
-71.09782062,68.28830246,158.63774862,37.67473138,39.47257692,-12.80178321
-2.10361356,-0.02736621,0.14593623

>  <Name>
3c44_lig

>  <RI>
0

>  <Rbt.Current_Directory>
/home/itssahil/PROJECTS/Mol_Feturizer/New_Systems/rnas/3c44

>  <Rbt.Executable>
rbdock ($Id: //depot/dev/client3/rdock/2013.1/src/exe/rbdock.cxx#4 $)

>  <Rbt.Library>
libRbt.so (2013.1, Build901 2013/11/27)

>  <Rbt.Parameter_File>
/export/apps/rDock/src/rDock_2013.1_src/data/scripts/dock_solv.prm

>  <Rbt.Receptor>
prm/pocket_docking_5.prm

>  <SCORE>
-20.0177

>  <SCORE.INTER>
-26.1136

>  <SCORE.INTER.CONST>
1

>  <SCORE.INTER.POLAR>
-2.3827

>  <SCORE.INTER.ROT>
9

>  <SCORE.INTER.SOLV>
19.4611

>  <SCORE.INTER.VDW>
-25.5538

>  <SCORE.INTER.norm>
-0.621752

>  <SCORE.INTRA>
6.09585

>  <SCORE.INTRA.DIHEDRAL>
1.75548

>  <SCORE.INTRA.DIHEDRAL.0>
14.8538

>  <SCORE.INTRA.POLAR>
0

>  <SCORE.INTRA.POLAR.0>
0

>  <SCORE.INTRA.REPUL>
0

>  <SCORE.INTRA.REPUL.0>
0

>  <SCORE.INTRA.SOLV>
2.77283

>  <SCORE.INTRA.SOLV.lig_0>
-100.951

>  <SCORE.INTRA.VDW>
3.83169

>  <SCORE.INTRA.VDW.0>
-5.71388

>  <SCORE.INTRA.norm>
0.145139

>  <SCORE.RESTR>
0

>  <SCORE.RESTR.CAVITY>
0

>  <SCORE.RESTR.norm>
0

>  <SCORE.SYSTEM>
0

>  <SCORE.SYSTEM.CONST>
0

>  <SCORE.SYSTEM.DIHEDRAL>
0

>  <SCORE.SYSTEM.SOLV>
0

>  <SCORE.SYSTEM.norm>
0

>  <SCORE.heavy>
42

>  <SCORE.norm>
-0.476613

>  <RMSD>
3.988

$$$$
3c44_lig
 OpenBabel11021811463D
libRbt.so/2013.1/901 2013/11/27
 42 45  0  0  0  0  0  0  0  0999 V2000
   36.5500   36.0612  -12.3929 C   0  0  2  0  0  0  0  0  0  0  0  0
   36.0489   36.7022  -13.5760 O   0  0  0  0  0  0  0  0  0  0  0  0
   32.4164   36.2270  -15.5173 C   0  0  2  0  0  0  0  0  0  0  0  0
   31.0388   36.0813  -16.0120 N   0  0  0  0  0  0  0  0  0  0  0  0
   35.5071   39.8076  -14.4141 C   0  0  1  0  0  0  0  0  0  0  0  0
   38.4490   42.0578  -16.4572 C   0  0  1  0  0  0  0  0  0  0  0  0
   37.2946   37.0942  -11.5406 C   0  0  2  0  0  0  0  0  0  0  0  0
   36.4370   38.2534  -11.2545 N   0  0  0  0  0  0  0  0  0  0  0  0
   32.7042   35.2056  -14.4131 C   0  0  0  0  0  0  0  0  0  0  0  0
   35.1014   40.8855  -15.4204 C   0  0  2  0  0  0  0  0  0  0  0  0
   34.9730   40.3135  -16.7234 O   0  0  0  0  0  0  0  0  0  0  0  0
   39.5518   41.3453  -17.2471 C   0  0  2  0  0  0  0  0  0  0  0  0
   40.0587   40.2331  -16.4315 N   0  0  0  0  0  0  0  0  0  0  0  0
   38.5696   37.5758  -12.2373 C   0  0  1  0  0  0  0  0  0  0  0  0
   39.3084   38.4126  -11.3422 O   0  0  0  0  0  0  0  0  0  0  0  0
   34.1911   35.3094  -14.0575 C   0  0  2  0  0  0  0  0  0  0  0  0
   34.4933   34.3841  -12.9550 N   0  0  0  0  0  0  0  0  0  0  0  0
   36.3569   41.7548  -15.3859 C   0  0  2  0  0  0  0  0  0  0  0  0
   37.4474   41.1051  -16.0594 O   0  0  0  0  0  0  0  0  0  0  0  0
   40.7122   42.2988  -17.5612 C   0  0  1  0  0  0  0  0  0  0  0  0
   40.3143   43.2645  -18.5380 O   0  0  0  0  0  0  0  0  0  0  0  0
   39.4272   36.3743  -12.6389 C   0  0  2  0  0  0  0  0  0  0  0  0
   40.5617   36.8219  -13.3855 O   0  0  0  0  0  0  0  0  0  0  0  0
   34.6124   36.7253  -13.6452 C   0  0  2  0  0  0  0  0  0  0  0  0
   36.6300   41.7879  -13.8905 C   0  0  2  0  0  0  0  0  0  0  0  0
   36.1248   40.5494  -13.3460 O   0  0  0  0  0  0  0  0  0  0  0  0
   41.1749   43.0347  -16.3027 C   0  0  2  0  0  0  0  0  0  0  0  0
   41.7785   42.0921  -15.4118 O   0  0  0  0  0  0  0  0  0  0  0  0
   38.5959   35.4141  -13.4912 C   0  0  2  0  0  0  0  0  0  0  0  0
   37.4304   34.9831  -12.7611 O   0  0  0  0  0  0  0  0  0  0  0  0
   34.1402   37.8225  -14.5969 C   0  0  2  0  0  0  0  0  0  0  0  0
   34.3309   39.1047  -13.9769 O   0  0  0  0  0  0  0  0  0  0  0  0
   35.9194   42.9921  -13.2689 C   0  0  0  0  0  0  0  0  0  0  0  0
   34.5071   42.8290  -13.4168 O   0  0  0  0  0  0  0  0  0  0  0  0
   39.9643   43.6974  -15.6400 C   0  0  1  0  0  0  0  0  0  0  0  0
   39.0191   42.6710  -15.2900 O   0  0  0  0  0  0  0  0  0  0  0  0
   39.4782   34.2090  -13.8272 C   0  0  0  0  0  0  0  0  0  0  0  0
   38.7093   33.2194  -14.5955 O   0  0  0  0  0  0  0  0  0  0  0  0
   32.6635   37.6324  -14.9631 C   0  0  1  0  0  0  0  0  0  0  0  0
   32.2670   38.6154  -15.9220 O   0  0  0  0  0  0  0  0  0  0  0  0
   40.3475   44.4750  -14.3803 C   0  0  0  0  0  0  0  0  0  0  0  0
   41.1793   45.6265  -14.7569 N   0  0  0  0  0  0  0  0  0  0  0  0
  1  2  1  6  0  0  0
  1  7  1  0  0  0  0
  1 30  1  0  0  0  0
  3  4  1  1  0  0  0
  3  9  1  0  0  0  0
  3 39  1  0  0  0  0
  5 10  1  0  0  0  0
  5 26  1  0  0  0  0
  5 32  1  1  0  0  0
  6 12  1  0  0  0  0
  6 36  1  0  0  0  0
  6 19  1  1  0  0  0
  7  8  1  6  0  0  0
  7 14  1  0  0  0  0
  9 16  1  0  0  0  0
 10 11  1  6  0  0  0
 10 18  1  0  0  0  0
 12 13  1  1  0  0  0
 12 20  1  0  0  0  0
 14 15  1  1  0  0  0
 14 22  1  0  0  0  0
 16 17  1  1  0  0  0
 16 24  1  0  0  0  0
 18 19  1  6  0  0  0
 18 25  1  0  0  0  0
 20 21  1  6  0  0  0
 20 27  1  0  0  0  0
 22 23  1  6  0  0  0
 22 29  1  0  0  0  0
 24  2  1  6  0  0  0
 24 31  1  0  0  0  0
 25 26  1  0  0  0  0
 25 33  1  1  0  0  0
 27 28  1  1  0  0  0
 27 35  1  0  0  0  0
 29 30  1  0  0  0  0
 29 37  1  1  0  0  0
 31 32  1  1  0  0  0
 31 39  1  0  0  0  0
 33 34  1  0  0  0  0
 35 36  1  0  0  0  0
 35 41  1  1  0  0  0
 37 38  1  0  0  0  0
 39 40  1  6  0  0  0
 41 42  1  0  0  0  0
M  END
>  <CHROM.1>
-115.37541028,101.69053592,-176.48940193,159.17927617,-76.75610664,63.98890739
177.36079606,100.11003081,66.82660613,37.07383109,39.17775985,-14.50230270
-2.16070660,-0.11503850,-0.33802236

>  <Name>
3c44_lig

>  <RI>
0

>  <Rbt.Current_Directory>
/home/itssahil/PROJECTS/Mol_Feturizer/New_Systems/rnas/3c44

>  <Rbt.Executable>
rbdock ($Id: //depot/dev/client3/rdock/2013.1/src/exe/rbdock.cxx#4 $)

>  <Rbt.Library>
libRbt.so (2013.1, Build901 2013/11/27)

>  <Rbt.Parameter_File>
/export/apps/rDock/src/rDock_2013.1_src/data/scripts/dock_solv.prm

>  <Rbt.Receptor>
prm/pocket_docking_4.prm

>  <SCORE>
-12.7587

>  <SCORE.INTER>
-17.4095

>  <SCORE.INTER.CONST>
1

>  <SCORE.INTER.POLAR>
-1.86978

>  <SCORE.INTER.ROT>
9

>  <SCORE.INTER.SOLV>
15.7736

>  <SCORE.INTER.VDW>
-20.2316

>  <SCORE.INTER.norm>
-0.414512

>  <SCORE.INTRA>
4.65076

>  <SCORE.INTRA.DIHEDRAL>
6.998

>  <SCORE.INTRA.DIHEDRAL.0>
14.8538

>  <SCORE.INTRA.POLAR>
0

>  <SCORE.INTRA.POLAR.0>
0

>  <SCORE.INTRA.REPUL>
0.0172601

>  <SCORE.INTRA.REPUL.0>
0

>  <SCORE.INTRA.SOLV>
-0.679986

>  <SCORE.INTRA.SOLV.lig_0>
-100.951

>  <SCORE.INTRA.VDW>
1.40545

>  <SCORE.INTRA.VDW.0>
-5.71388

>  <SCORE.INTRA.norm>
0.110732

>  <SCORE.RESTR>
0

>  <SCORE.RESTR.CAVITY>
0

>  <SCORE.RESTR.norm>
0

>  <SCORE.SYSTEM>
0

>  <SCORE.SYSTEM.CONST>
0

>  <SCORE.SYSTEM.DIHEDRAL>
0

>  <SCORE.SYSTEM.SOLV>
0

>  <SCORE.SYSTEM.norm>
0

>  <SCORE.heavy>
42

>  <SCORE.norm>
-0.303779

>  <RMSD>
4.032

$$$$
3c44_lig
 OpenBabel11021811463D
libRbt.so/2013.1/901 2013/11/27
 42 45  0  0  0  0  0  0  0  0999 V2000
   38.3727   35.9734  -12.3860 C   0  0  2  0  0  0  0  0  0  0  0  0
   37.4288   36.5403  -13.3077 O   0  0  0  0  0  0  0  0  0  0  0  0
   33.7501   34.8825  -14.2606 C   0  0  2  0  0  0  0  0  0  0  0  0
   32.3979   34.3179  -14.3906 N   0  0  0  0  0  0  0  0  0  0  0  0
   35.9476   39.2353  -14.0998 C   0  0  1  0  0  0  0  0  0  0  0  0
   37.9927   42.0618  -16.3946 C   0  0  1  0  0  0  0  0  0  0  0  0
   39.3504   37.0642  -11.9362 C   0  0  2  0  0  0  0  0  0  0  0  0
   38.6282   38.2221  -11.3897 N   0  0  0  0  0  0  0  0  0  0  0  0
   34.5519   34.1237  -13.1993 C   0  0  0  0  0  0  0  0  0  0  0  0
   35.1517   40.4279  -14.6322 C   0  0  2  0  0  0  0  0  0  0  0  0
   34.5557   40.0958  -15.8877 O   0  0  0  0  0  0  0  0  0  0  0  0
   38.7973   41.6178  -17.6206 C   0  0  2  0  0  0  0  0  0  0  0  0
   39.4225   40.3229  -17.3180 N   0  0  0  0  0  0  0  0  0  0  0  0
   40.2369   37.5292  -13.0942 C   0  0  1  0  0  0  0  0  0  0  0  0
   41.2332   38.4262  -12.5941 O   0  0  0  0  0  0  0  0  0  0  0  0
   35.9875   34.6588  -13.2281 C   0  0  2  0  0  0  0  0  0  0  0  0
   36.7750   33.9956  -12.1779 N   0  0  0  0  0  0  0  0  0  0  0  0
   36.2945   41.4118  -14.8747 C   0  0  2  0  0  0  0  0  0  0  0  0
   37.0674   41.0252  -16.0228 O   0  0  0  0  0  0  0  0  0  0  0  0
   39.8975   42.6325  -17.9582 C   0  0  1  0  0  0  0  0  0  0  0  0
   39.3248   43.8346  -18.4798 O   0  0  0  0  0  0  0  0  0  0  0  0
   40.9158   36.3227  -13.7451 C   0  0  2  0  0  0  0  0  0  0  0  0
   41.6548   36.7487  -14.8929 O   0  0  0  0  0  0  0  0  0  0  0  0
   36.0667   36.1767  -13.0223 C   0  0  2  0  0  0  0  0  0  0  0  0
   37.1162   41.1985  -13.6132 C   0  0  2  0  0  0  0  0  0  0  0  0
   36.9001   39.8318  -13.2000 O   0  0  0  0  0  0  0  0  0  0  0  0
   40.7243   42.9795  -16.7190 C   0  0  2  0  0  0  0  0  0  0  0  0
   41.4739   41.8264  -16.3259 O   0  0  0  0  0  0  0  0  0  0  0  0
   39.8556   35.3032  -14.1644 C   0  0  2  0  0  0  0  0  0  0  0  0
   39.0811   34.8924  -13.0205 O   0  0  0  0  0  0  0  0  0  0  0  0
   35.1045   36.9792  -13.8956 C   0  0  2  0  0  0  0  0  0  0  0  0
   35.0523   38.3354  -13.4236 O   0  0  0  0  0  0  0  0  0  0  0  0
   36.6553   42.1790  -12.5326 C   0  0  0  0  0  0  0  0  0  0  0  0
   37.4530   41.9925  -11.3613 O   0  0  0  0  0  0  0  0  0  0  0  0
   39.7790   43.4115  -15.5949 C   0  0  1  0  0  0  0  0  0  0  0  0
   38.8903   42.3187  -15.3029 O   0  0  0  0  0  0  0  0  0  0  0  0
   40.5829   34.0972  -14.7645 C   0  0  0  0  0  0  0  0  0  0  0  0
   41.1755   34.4589  -16.0602 O   0  0  0  0  0  0  0  0  0  0  0  0
   33.7007   36.3628  -13.8740 C   0  0  1  0  0  0  0  0  0  0  0  0
   32.8402   37.0751  -14.7657 O   0  0  0  0  0  0  0  0  0  0  0  0
   40.5324   43.7974  -14.3213 C   0  0  0  0  0  0  0  0  0  0  0  0
   39.5822   44.3496  -13.3457 N   0  0  0  0  0  0  0  0  0  0  0  0
  1  2  1  6  0  0  0
  1  7  1  0  0  0  0
  1 30  1  0  0  0  0
  3  4  1  1  0  0  0
  3  9  1  0  0  0  0
  3 39  1  0  0  0  0
  5 10  1  0  0  0  0
  5 26  1  0  0  0  0
  5 32  1  1  0  0  0
  6 12  1  0  0  0  0
  6 36  1  0  0  0  0
  6 19  1  1  0  0  0
  7  8  1  6  0  0  0
  7 14  1  0  0  0  0
  9 16  1  0  0  0  0
 10 11  1  6  0  0  0
 10 18  1  0  0  0  0
 12 13  1  1  0  0  0
 12 20  1  0  0  0  0
 14 15  1  1  0  0  0
 14 22  1  0  0  0  0
 16 17  1  1  0  0  0
 16 24  1  0  0  0  0
 18 19  1  6  0  0  0
 18 25  1  0  0  0  0
 20 21  1  1  0  0  0
 20 27  1  0  0  0  0
 22 23  1  6  0  0  0
 22 29  1  0  0  0  0
 24  2  1  6  0  0  0
 24 31  1  0  0  0  0
 25 26  1  0  0  0  0
 25 33  1  1  0  0  0
 27 28  1  1  0  0  0
 27 35  1  0  0  0  0
 29 30  1  0  0  0  0
 29 37  1  1  0  0  0
 31 32  1  1  0  0  0
 31 39  1  0  0  0  0
 33 34  1  0  0  0  0
 35 36  1  0  0  0  0
 35 41  1  1  0  0  0
 37 38  1  0  0  0  0
 39 40  1  6  0  0  0
 41 42  1  0  0  0  0
M  END
>  <CHROM.1>
-133.42072102,125.95582434,-179.93202258,169.94431949,-64.65890889,-178.68259913
-70.01722342,94.57239358,173.34737962,37.83814135,38.80238618,-14.37002206
-1.95911985,0.08253179,-0.26600872

>  <Name>
3c44_lig

>  <RI>
0

>  <Rbt.Current_Directory>
/home/itssahil/PROJECTS/Mol_Feturizer/New_Systems/rnas/3c44

>  <Rbt.Executable>
rbdock ($Id: //depot/dev/client3/rdock/2013.1/src/exe/rbdock.cxx#4 $)

>  <Rbt.Library>
libRbt.so (2013.1, Build901 2013/11/27)

>  <Rbt.Parameter_File>
/export/apps/rDock/src/rDock_2013.1_src/data/scripts/dock_solv.prm

>  <Rbt.Receptor>
prm/pocket_docking_5.prm

>  <SCORE>
-10.7465

>  <SCORE.INTER>
-16.9352

>  <SCORE.INTER.CONST>
1

>  <SCORE.INTER.POLAR>
-1.18083

>  <SCORE.INTER.ROT>
9

>  <SCORE.INTER.SOLV>
14.8859

>  <SCORE.INTER.VDW>
-21.916

>  <SCORE.INTER.norm>
-0.403219

>  <SCORE.INTRA>
6.18869

>  <SCORE.INTRA.DIHEDRAL>
4.3309

>  <SCORE.INTRA.DIHEDRAL.0>
14.8538

>  <SCORE.INTRA.POLAR>
0

>  <SCORE.INTRA.POLAR.0>
0

>  <SCORE.INTRA.REPUL>
0

>  <SCORE.INTRA.REPUL.0>
0

>  <SCORE.INTRA.SOLV>
0.65996

>  <SCORE.INTRA.SOLV.lig_0>
-100.951

>  <SCORE.INTRA.VDW>
3.69326

>  <SCORE.INTRA.VDW.0>
-5.71388

>  <SCORE.INTRA.norm>
0.14735

>  <SCORE.RESTR>
0

>  <SCORE.RESTR.CAVITY>
0

>  <SCORE.RESTR.norm>
0

>  <SCORE.SYSTEM>
0

>  <SCORE.SYSTEM.CONST>
0

>  <SCORE.SYSTEM.DIHEDRAL>
0

>  <SCORE.SYSTEM.SOLV>
0

>  <SCORE.SYSTEM.norm>
0

>  <SCORE.heavy>
42

>  <SCORE.norm>
-0.255869

>  <RMSD>
4.055

$$$$
3c44_lig
 OpenBabel11021811463D
libRbt.so/2013.1/901 2013/11/27
 42 45  0  0  0  0  0  0  0  0999 V2000
   35.3394   37.0837  -13.1192 C   0  0  2  0  0  0  0  0  0  0  0  0
   35.5701   37.2676  -14.5245 O   0  0  0  0  0  0  0  0  0  0  0  0
   33.3102   37.0139  -17.9912 C   0  0  2  0  0  0  0  0  0  0  0  0
   32.3393   36.9638  -19.0951 N   0  0  0  0  0  0  0  0  0  0  0  0
   35.8141   40.2985  -15.3876 C   0  0  1  0  0  0  0  0  0  0  0  0
   39.7085   41.9909  -15.4673 C   0  0  1  0  0  0  0  0  0  0  0  0
   36.5455   37.6177  -12.3395 C   0  0  2  0  0  0  0  0  0  0  0  0
   36.8288   39.0133  -12.7040 N   0  0  0  0  0  0  0  0  0  0  0  0
   32.9232   36.0261  -16.8869 C   0  0  0  0  0  0  0  0  0  0  0  0
   36.2257   41.3278  -16.4412 C   0  0  2  0  0  0  0  0  0  0  0  0
   36.7816   40.6662  -17.5791 O   0  0  0  0  0  0  0  0  0  0  0  0
   40.9367   41.0747  -15.4662 C   0  0  2  0  0  0  0  0  0  0  0  0
   40.7550   40.0606  -14.4185 N   0  0  0  0  0  0  0  0  0  0  0  0
   37.7942   36.7706  -12.5970 C   0  0  1  0  0  0  0  0  0  0  0  0
   38.8466   37.2075  -11.7316 O   0  0  0  0  0  0  0  0  0  0  0  0
   34.0524   36.0184  -15.8511 C   0  0  2  0  0  0  0  0  0  0  0  0
   33.6883   35.1249  -14.7411 N   0  0  0  0  0  0  0  0  0  0  0  0
   37.3490   42.0344  -15.6851 C   0  0  2  0  0  0  0  0  0  0  0  0
   38.5155   41.1990  -15.6042 O   0  0  0  0  0  0  0  0  0  0  0  0
   42.2178   41.8665  -15.1729 C   0  0  1  0  0  0  0  0  0  0  0  0
   42.5533   42.7025  -16.2835 O   0  0  0  0  0  0  0  0  0  0  0  0
   37.4871   35.2969  -12.3246 C   0  0  2  0  0  0  0  0  0  0  0  0
   38.6211   34.4978  -12.6712 O   0  0  0  0  0  0  0  0  0  0  0  0
   34.3582   37.4111  -15.2857 C   0  0  2  0  0  0  0  0  0  0  0  0
   36.7183   42.1619  -14.3074 C   0  0  2  0  0  0  0  0  0  0  0  0
   35.8126   41.0471  -14.1579 O   0  0  0  0  0  0  0  0  0  0  0  0
   42.0499   42.7432  -13.9308 C   0  0  2  0  0  0  0  0  0  0  0  0
   41.9351   41.8993  -12.7816 O   0  0  0  0  0  0  0  0  0  0  0  0
   36.2784   34.8638  -13.1556 C   0  0  2  0  0  0  0  0  0  0  0  0
   35.1374   35.6858  -12.8397 O   0  0  0  0  0  0  0  0  0  0  0  0
   34.5184   38.4976  -16.3470 C   0  0  2  0  0  0  0  0  0  0  0  0
   34.5098   39.7870  -15.7129 O   0  0  0  0  0  0  0  0  0  0  0  0
   35.9714   43.4939  -14.2098 C   0  0  0  0  0  0  0  0  0  0  0  0
   36.9104   44.5656  -14.3222 O   0  0  0  0  0  0  0  0  0  0  0  0
   40.7916   43.6002  -14.0928 C   0  0  1  0  0  0  0  0  0  0  0  0
   39.6595   42.7238  -14.2328 O   0  0  0  0  0  0  0  0  0  0  0  0
   35.9804   33.4015  -12.8146 C   0  0  0  0  0  0  0  0  0  0  0  0
   37.0602   32.5372  -13.3126 O   0  0  0  0  0  0  0  0  0  0  0  0
   33.3947   38.4180  -17.3871 C   0  0  1  0  0  0  0  0  0  0  0  0
   33.6129   39.3840  -18.4177 O   0  0  0  0  0  0  0  0  0  0  0  0
   40.5632   44.5251  -12.8967 C   0  0  0  0  0  0  0  0  0  0  0  0
   39.5224   45.5058  -13.2353 N   0  0  0  0  0  0  0  0  0  0  0  0
  1  2  1  6  0  0  0
  1  7  1  0  0  0  0
  1 30  1  0  0  0  0
  3  4  1  6  0  0  0
  3  9  1  0  0  0  0
  3 39  1  0  0  0  0
  5 10  1  0  0  0  0
  5 26  1  0  0  0  0
  5 32  1  6  0  0  0
  6 12  1  0  0  0  0
  6 36  1  0  0  0  0
  6 19  1  1  0  0  0
  7  8  1  6  0  0  0
  7 14  1  0  0  0  0
  9 16  1  0  0  0  0
 10 11  1  6  0  0  0
 10 18  1  0  0  0  0
 12 13  1  1  0  0  0
 12 20  1  0  0  0  0
 14 15  1  1  0  0  0
 14 22  1  0  0  0  0
 16 17  1  1  0  0  0
 16 24  1  0  0  0  0
 18 19  1  1  0  0  0
 18 25  1  0  0  0  0
 20 21  1  6  0  0  0
 20 27  1  0  0  0  0
 22 23  1  6  0  0  0
 22 29  1  0  0  0  0
 24  2  1  6  0  0  0
 24 31  1  0  0  0  0
 25 26  1  0  0  0  0
 25 33  1  6  0  0  0
 27 28  1  1  0  0  0
 27 35  1  0  0  0  0
 29 30  1  0  0  0  0
 29 37  1  1  0  0  0
 31 32  1  1  0  0  0
 31 39  1  0  0  0  0
 33 34  1  0  0  0  0
 35 36  1  0  0  0  0
 35 41  1  1  0  0  0
 37 38  1  0  0  0  0
 39 40  1  6  0  0  0
 41 42  1  0  0  0  0
M  END
>  <CHROM.1>
-152.29893063,100.91118126,-176.72673995,154.01092589,-96.80073220,-64.05310171
-68.09339782,93.60950648,168.15110900,37.13882816,39.32242361,-14.69234075
-2.34743774,-0.55498060,-0.40110864

>  <Name>
3c44_lig

>  <RI>
0

>  <Rbt.Current_Directory>
/home/itssahil/PROJECTS/Mol_Feturizer/New_Systems/rnas/3c44

>  <Rbt.Executable>
rbdock ($Id: //depot/dev/client3/rdock/2013.1/src/exe/rbdock.cxx#4 $)

>  <Rbt.Library>
libRbt.so (2013.1, Build901 2013/11/27)

>  <Rbt.Parameter_File>
/export/apps/rDock/src/rDock_2013.1_src/data/scripts/dock_solv.prm

>  <Rbt.Receptor>
prm/pocket_docking_5.prm

>  <SCORE>
-7.23479

>  <SCORE.INTER>
-12.827

>  <SCORE.INTER.CONST>
1

>  <SCORE.INTER.POLAR>
-0.838998

>  <SCORE.INTER.ROT>
9

>  <SCORE.INTER.SOLV>
12.2808

>  <SCORE.INTER.VDW>
-19.4482

>  <SCORE.INTER.norm>
-0.305404

>  <SCORE.INTRA>
5.59218

>  <SCORE.INTRA.DIHEDRAL>
6.68618

>  <SCORE.INTRA.DIHEDRAL.0>
14.8538

>  <SCORE.INTRA.POLAR>
0

>  <SCORE.INTRA.POLAR.0>
0

>  <SCORE.INTRA.REPUL>
0.022572

>  <SCORE.INTRA.REPUL.0>
0

>  <SCORE.INTRA.SOLV>
2.64881

>  <SCORE.INTRA.SOLV.lig_0>
-100.951

>  <SCORE.INTRA.VDW>
0.811829

>  <SCORE.INTRA.VDW.0>
-5.71388

>  <SCORE.INTRA.norm>
0.133147

>  <SCORE.RESTR>
0

>  <SCORE.RESTR.CAVITY>
0

>  <SCORE.RESTR.norm>
0

>  <SCORE.SYSTEM>
0

>  <SCORE.SYSTEM.CONST>
0

>  <SCORE.SYSTEM.DIHEDRAL>
0

>  <SCORE.SYSTEM.SOLV>
0

>  <SCORE.SYSTEM.norm>
0

>  <SCORE.heavy>
42

>  <SCORE.norm>
-0.172257

>  <RMSD>
4.084

$$$$
3c44_lig
 OpenBabel11021811463D
libRbt.so/2013.1/901 2013/11/27
 42 45  0  0  0  0  0  0  0  0999 V2000
   37.8436   36.5694  -11.7637 C   0  0  2  0  0  0  0  0  0  0  0  0
   36.9466   37.2421  -12.6606 O   0  0  0  0  0  0  0  0  0  0  0  0
   33.7802   35.4184  -14.6197 C   0  0  2  0  0  0  0  0  0  0  0  0
   32.5778   34.7336  -15.1188 N   0  0  0  0  0  0  0  0  0  0  0  0
   35.3535   39.6901  -12.7377 C   0  0  1  0  0  0  0  0  0  0  0  0
   37.8215   43.0796  -13.3329 C   0  0  1  0  0  0  0  0  0  0  0  0
   38.7088   37.6107  -11.0462 C   0  0  2  0  0  0  0  0  0  0  0  0
   37.8713   38.6197  -10.3818 N   0  0  0  0  0  0  0  0  0  0  0  0
   34.5446   34.5222  -13.6410 C   0  0  0  0  0  0  0  0  0  0  0  0
   34.7711   41.0028  -13.2638 C   0  0  2  0  0  0  0  0  0  0  0  0
   34.8199   41.0210  -14.6917 O   0  0  0  0  0  0  0  0  0  0  0  0
   38.9200   43.0951  -14.4010 C   0  0  2  0  0  0  0  0  0  0  0  0
   39.6945   41.8518  -14.2845 N   0  0  0  0  0  0  0  0  0  0  0  0
   39.6583   38.3124  -12.0205 C   0  0  1  0  0  0  0  0  0  0  0  0
   40.5501   39.1554  -11.2846 O   0  0  0  0  0  0  0  0  0  0  0  0
   35.8556   35.2314  -13.2856 C   0  0  2  0  0  0  0  0  0  0  0  0
   36.5911   34.4276  -12.2977 N   0  0  0  0  0  0  0  0  0  0  0  0
   35.8123   41.9808  -12.7231 C   0  0  2  0  0  0  0  0  0  0  0  0
   37.0421   41.8772  -13.4592 O   0  0  0  0  0  0  0  0  0  0  0  0
   39.8651   44.2880  -14.2061 C   0  0  1  0  0  0  0  0  0  0  0  0
   39.2013   45.5102  -14.5385 O   0  0  0  0  0  0  0  0  0  0  0  0
   40.4648   37.2717  -12.7995 C   0  0  2  0  0  0  0  0  0  0  0  0
   41.2692   37.9261  -13.7843 O   0  0  0  0  0  0  0  0  0  0  0  0
   35.6416   36.6399  -12.7174 C   0  0  2  0  0  0  0  0  0  0  0  0
   36.0107   41.4271  -11.3209 C   0  0  2  0  0  0  0  0  0  0  0  0
   35.7564   40.0074  -11.3925 O   0  0  0  0  0  0  0  0  0  0  0  0
   40.3533   44.3717  -12.7590 C   0  0  2  0  0  0  0  0  0  0  0  0
   41.2044   43.2532  -12.4930 O   0  0  0  0  0  0  0  0  0  0  0  0
   39.5104   36.2911  -13.4828 C   0  0  2  0  0  0  0  0  0  0  0  0
   38.6700   35.6506  -12.5027 O   0  0  0  0  0  0  0  0  0  0  0  0
   34.6870   37.5077  -13.5348 C   0  0  2  0  0  0  0  0  0  0  0  0
   34.3354   38.6748  -12.7740 O   0  0  0  0  0  0  0  0  0  0  0  0
   35.0369   42.1122  -10.3596 C   0  0  0  0  0  0  0  0  0  0  0  0
   35.3707   41.7486   -9.0183 O   0  0  0  0  0  0  0  0  0  0  0  0
   39.1418   44.3563  -11.8232 C   0  0  1  0  0  0  0  0  0  0  0  0
   38.4235   43.1271  -12.0295 O   0  0  0  0  0  0  0  0  0  0  0  0
   40.3606   35.2444  -14.2074 C   0  0  0  0  0  0  0  0  0  0  0  0
   39.4938   34.2346  -14.8317 O   0  0  0  0  0  0  0  0  0  0  0  0
   33.4220   36.7269  -13.9107 C   0  0  1  0  0  0  0  0  0  0  0  0
   32.5847   37.5267  -14.7487 O   0  0  0  0  0  0  0  0  0  0  0  0
   39.5455   44.4587  -10.3518 C   0  0  0  0  0  0  0  0  0  0  0  0
   38.3350   44.4884   -9.5190 N   0  0  0  0  0  0  0  0  0  0  0  0
  1  2  1  6  0  0  0
  1  7  1  0  0  0  0
  1 30  1  0  0  0  0
  3  4  1  1  0  0  0
  3  9  1  0  0  0  0
  3 39  1  0  0  0  0
  5 10  1  0  0  0  0
  5 26  1  0  0  0  0
  5 32  1  1  0  0  0
  6 12  1  0  0  0  0
  6 36  1  0  0  0  0
  6 19  1  1  0  0  0
  7  8  1  6  0  0  0
  7 14  1  0  0  0  0
  9 16  1  0  0  0  0
 10 11  1  6  0  0  0
 10 18  1  0  0  0  0
 12 13  1  1  0  0  0
 12 20  1  0  0  0  0
 14 15  1  1  0  0  0
 14 22  1  0  0  0  0
 16 17  1  1  0  0  0
 16 24  1  0  0  0  0
 18 19  1  6  0  0  0
 18 25  1  0  0  0  0
 20 21  1  1  0  0  0
 20 27  1  0  0  0  0
 22 23  1  6  0  0  0
 22 29  1  0  0  0  0
 24  2  1  6  0  0  0
 24 31  1  0  0  0  0
 25 26  1  0  0  0  0
 25 33  1  1  0  0  0
 27 28  1  1  0  0  0
 27 35  1  0  0  0  0
 29 30  1  0  0  0  0
 29 37  1  1  0  0  0
 31 32  1  1  0  0  0
 31 39  1  0  0  0  0
 33 34  1  0  0  0  0
 35 36  1  0  0  0  0
 35 41  1  1  0  0  0
 37 38  1  0  0  0  0
 39 40  1  6  0  0  0
 41 42  1  0  0  0  0
M  END
>  <CHROM.1>
-142.21887076,123.33801212,-165.03798393,157.86026694,-63.54471341,-170.80562356
177.30637809,77.10198290,177.91154417,37.34259880,39.49576311,-12.76435404
-1.93474836,-0.02550441,0.15282705

>  <Name>
3c44_lig

>  <RI>
0

>  <Rbt.Current_Directory>
/home/itssahil/PROJECTS/Mol_Feturizer/New_Systems/rnas/3c44

>  <Rbt.Executable>
rbdock ($Id: //depot/dev/client3/rdock/2013.1/src/exe/rbdock.cxx#4 $)

>  <Rbt.Library>
libRbt.so (2013.1, Build901 2013/11/27)

>  <Rbt.Parameter_File>
/export/apps/rDock/src/rDock_2013.1_src/data/scripts/dock_solv.prm

>  <Rbt.Receptor>
prm/pocket_docking_4.prm

>  <SCORE>
-19.9511

>  <SCORE.INTER>
-25.6235

>  <SCORE.INTER.CONST>
1

>  <SCORE.INTER.POLAR>
-2.22242

>  <SCORE.INTER.ROT>
9

>  <SCORE.INTER.SOLV>
14.8712

>  <SCORE.INTER.VDW>
-24.2313

>  <SCORE.INTER.norm>
-0.610084

>  <SCORE.INTRA>
5.67243

>  <SCORE.INTRA.DIHEDRAL>
2.3783

>  <SCORE.INTRA.DIHEDRAL.0>
14.8538

>  <SCORE.INTRA.POLAR>
0

>  <SCORE.INTRA.POLAR.0>
0

>  <SCORE.INTRA.REPUL>
0.123966

>  <SCORE.INTRA.REPUL.0>
0

>  <SCORE.INTRA.SOLV>
0.640276

>  <SCORE.INTRA.SOLV.lig_0>
-100.951

>  <SCORE.INTRA.VDW>
3.54331

>  <SCORE.INTRA.VDW.0>
-5.71388

>  <SCORE.INTRA.norm>
0.135058

>  <SCORE.RESTR>
0

>  <SCORE.RESTR.CAVITY>
0

>  <SCORE.RESTR.norm>
0

>  <SCORE.SYSTEM>
0

>  <SCORE.SYSTEM.CONST>
0

>  <SCORE.SYSTEM.DIHEDRAL>
0

>  <SCORE.SYSTEM.SOLV>
0

>  <SCORE.SYSTEM.norm>
0

>  <SCORE.heavy>
42

>  <SCORE.norm>
-0.475026

>  <RMSD>
4.132

$$$$
3c44_lig
 OpenBabel11021811463D
libRbt.so/2013.1/901 2013/11/27
 42 45  0  0  0  0  0  0  0  0999 V2000
   39.0726   36.4133  -12.4554 C   0  0  2  0  0  0  0  0  0  0  0  0
   38.0515   37.1577  -13.1372 O   0  0  0  0  0  0  0  0  0  0  0  0
   34.2600   35.8449  -14.1816 C   0  0  2  0  0  0  0  0  0  0  0  0
   32.8908   35.3324  -14.3440 N   0  0  0  0  0  0  0  0  0  0  0  0
   35.9482   40.1174  -13.0462 C   0  0  1  0  0  0  0  0  0  0  0  0
   38.6476   42.7427  -14.1011 C   0  0  1  0  0  0  0  0  0  0  0  0
   40.1252   37.3865  -11.9143 C   0  0  2  0  0  0  0  0  0  0  0  0
   39.5011   38.4198  -11.0752 N   0  0  0  0  0  0  0  0  0  0  0  0
   35.1550   34.7930  -13.5199 C   0  0  0  0  0  0  0  0  0  0  0  0
   37.1822   40.0013  -13.9423 C   0  0  2  0  0  0  0  0  0  0  0  0
   38.3679   40.1874  -13.1669 O   0  0  0  0  0  0  0  0  0  0  0  0
   38.9055   43.9943  -13.2556 C   0  0  2  0  0  0  0  0  0  0  0  0
   38.0450   45.0749  -13.7565 N   0  0  0  0  0  0  0  0  0  0  0  0
   40.8942   38.0636  -13.0515 C   0  0  1  0  0  0  0  0  0  0  0  0
   41.9650   38.8369  -12.5012 O   0  0  0  0  0  0  0  0  0  0  0  0
   36.5897   35.3312  -13.5252 C   0  0  2  0  0  0  0  0  0  0  0  0
   37.4711   34.3729  -12.8412 N   0  0  0  0  0  0  0  0  0  0  0  0
   36.9742   41.2294  -14.8263 C   0  0  2  0  0  0  0  0  0  0  0  0
   37.2420   42.4371  -14.0952 O   0  0  0  0  0  0  0  0  0  0  0  0
   40.3703   44.4394  -13.3578 C   0  0  1  0  0  0  0  0  0  0  0  0
   41.2212   43.5171  -12.6721 O   0  0  0  0  0  0  0  0  0  0  0  0
   41.4625   37.0037  -13.9969 C   0  0  2  0  0  0  0  0  0  0  0  0
   42.0850   37.6416  -15.1152 O   0  0  0  0  0  0  0  0  0  0  0  0
   36.7206   36.6985  -12.8427 C   0  0  2  0  0  0  0  0  0  0  0  0
   35.4829   41.1224  -15.1029 C   0  0  2  0  0  0  0  0  0  0  0  0
   34.8919   40.4676  -13.9595 O   0  0  0  0  0  0  0  0  0  0  0  0
   40.8172   44.5282  -14.8179 C   0  0  2  0  0  0  0  0  0  0  0  0
   40.1195   45.6051  -15.4501 O   0  0  0  0  0  0  0  0  0  0  0  0
   40.3334   36.0949  -14.4851 C   0  0  2  0  0  0  0  0  0  0  0  0
   39.6757   35.4728  -13.3637 O   0  0  0  0  0  0  0  0  0  0  0  0
   35.6871   37.7275  -13.2963 C   0  0  2  0  0  0  0  0  0  0  0  0
   35.7123   38.8527  -12.4031 O   0  0  0  0  0  0  0  0  0  0  0  0
   35.2581   40.3088  -16.3793 C   0  0  0  0  0  0  0  0  0  0  0  0
   35.7642   38.9862  -16.1857 O   0  0  0  0  0  0  0  0  0  0  0  0
   40.5014   43.2031  -15.5166 C   0  0  1  0  0  0  0  0  0  0  0  0
   39.0817   42.9808  -15.4495 O   0  0  0  0  0  0  0  0  0  0  0  0
   40.9553   35.0250  -15.3863 C   0  0  0  0  0  0  0  0  0  0  0  0
   41.8102   34.1310  -14.5920 O   0  0  0  0  0  0  0  0  0  0  0  0
   34.2816   37.1154  -13.3280 C   0  0  1  0  0  0  0  0  0  0  0  0
   33.3454   38.0668  -13.8393 O   0  0  0  0  0  0  0  0  0  0  0  0
   40.9390   43.2026  -16.9819 C   0  0  0  0  0  0  0  0  0  0  0  0
   40.7029   41.8709  -17.5568 N   0  0  0  0  0  0  0  0  0  0  0  0
  1  2  1  6  0  0  0
  1  7  1  0  0  0  0
  1 30  1  0  0  0  0
  3  4  1  1  0  0  0
  3  9  1  0  0  0  0
  3 39  1  0  0  0  0
  5 10  1  0  0  0  0
  5 26  1  0  0  0  0
  5 32  1  6  0  0  0
  6 12  1  0  0  0  0
  6 36  1  0  0  0  0
  6 19  1  6  0  0  0
  7  8  1  6  0  0  0
  7 14  1  0  0  0  0
  9 16  1  0  0  0  0
 10 11  1  1  0  0  0
 10 18  1  0  0  0  0
 12 13  1  6  0  0  0
 12 20  1  0  0  0  0
 14 15  1  1  0  0  0
 14 22  1  0  0  0  0
 16 17  1  1  0  0  0
 16 24  1  0  0  0  0
 18 19  1  1  0  0  0
 18 25  1  0  0  0  0
 20 21  1  1  0  0  0
 20 27  1  0  0  0  0
 22 23  1  6  0  0  0
 22 29  1  0  0  0  0
 24  2  1  6  0  0  0
 24 31  1  0  0  0  0
 25 26  1  0  0  0  0
 25 33  1  6  0  0  0
 27 28  1  6  0  0  0
 27 35  1  0  0  0  0
 29 30  1  0  0  0  0
 29 37  1  6  0  0  0
 31 32  1  1  0  0  0
 31 39  1  0  0  0  0
 33 34  1  0  0  0  0
 35 36  1  0  0  0  0
 35 41  1  6  0  0  0
 37 38  1  0  0  0  0
 39 40  1  6  0  0  0
 41 42  1  0  0  0  0
M  END
>  <CHROM.1>
-137.19197424,-50.69326158,-177.17495507,84.24677683,-70.29746440,62.18278027
67.36402286,123.74556680,175.58247222,38.22019475,39.33789057,-14.02729362
-1.91603318,0.00311853,-0.13958524

>  <Name>
3c44_lig

>  <RI>
0

>  <Rbt.Current_Directory>
/home/itssahil/PROJECTS/Mol_Feturizer/New_Systems/rnas/3c44

>  <Rbt.Executable>
rbdock ($Id: //depot/dev/client3/rdock/2013.1/src/exe/rbdock.cxx#4 $)

>  <Rbt.Library>
libRbt.so (2013.1, Build901 2013/11/27)

>  <Rbt.Parameter_File>
/export/apps/rDock/src/rDock_2013.1_src/data/scripts/dock_solv.prm

>  <Rbt.Receptor>
prm/pocket_docking_4.prm

>  <SCORE>
-8.5609

>  <SCORE.INTER>
-13.3235

>  <SCORE.INTER.CONST>
1

>  <SCORE.INTER.POLAR>
-1.01389

>  <SCORE.INTER.ROT>
9

>  <SCORE.INTER.SOLV>
17.4374

>  <SCORE.INTER.VDW>
-20.9152

>  <SCORE.INTER.norm>
-0.317227

>  <SCORE.INTRA>
4.76264

>  <SCORE.INTRA.DIHEDRAL>
2.12523

>  <SCORE.INTRA.DIHEDRAL.0>
14.8538

>  <SCORE.INTRA.POLAR>
0

>  <SCORE.INTRA.POLAR.0>
0

>  <SCORE.INTRA.REPUL>
0.0367948

>  <SCORE.INTRA.REPUL.0>
0

>  <SCORE.INTRA.SOLV>
0.99487

>  <SCORE.INTRA.SOLV.lig_0>
-100.951

>  <SCORE.INTRA.VDW>
3.01862

>  <SCORE.INTRA.VDW.0>
-5.71388

>  <SCORE.INTRA.norm>
0.113396

>  <SCORE.RESTR>
0

>  <SCORE.RESTR.CAVITY>
0

>  <SCORE.RESTR.norm>
0

>  <SCORE.SYSTEM>
0

>  <SCORE.SYSTEM.CONST>
0

>  <SCORE.SYSTEM.DIHEDRAL>
0

>  <SCORE.SYSTEM.SOLV>
0

>  <SCORE.SYSTEM.norm>
0

>  <SCORE.heavy>
42

>  <SCORE.norm>
-0.203831

>  <RMSD>
4.150

$$$$
3c44_lig
 OpenBabel11021811463D
libRbt.so/2013.1/901 2013/11/27
 42 45  0  0  0  0  0  0  0  0999 V2000
   37.8756   36.6317  -11.7676 C   0  0  2  0  0  0  0  0  0  0  0  0
   36.9657   37.2954  -12.6583 O   0  0  0  0  0  0  0  0  0  0  0  0
   33.7951   35.4485  -14.5884 C   0  0  2  0  0  0  0  0  0  0  0  0
   32.5934   34.7545  -15.0764 N   0  0  0  0  0  0  0  0  0  0  0  0
   35.3698   39.7113  -12.6796 C   0  0  1  0  0  0  0  0  0  0  0  0
   37.8620   43.0987  -13.2286 C   0  0  1  0  0  0  0  0  0  0  0  0
   38.7454   37.6807  -11.0669 C   0  0  2  0  0  0  0  0  0  0  0  0
   37.9120   38.6911  -10.3994 N   0  0  0  0  0  0  0  0  0  0  0  0
   34.5762   34.5574  -13.6183 C   0  0  0  0  0  0  0  0  0  0  0  0
   34.8088   41.0365  -13.1975 C   0  0  2  0  0  0  0  0  0  0  0  0
   34.8796   41.0724  -14.6242 O   0  0  0  0  0  0  0  0  0  0  0  0
   38.9101   43.1522  -14.3450 C   0  0  2  0  0  0  0  0  0  0  0  0
   39.7032   41.9163  -14.2930 N   0  0  0  0  0  0  0  0  0  0  0  0
   39.6809   38.3793  -12.0568 C   0  0  1  0  0  0  0  0  0  0  0  0
   40.5782   39.2302  -11.3368 O   0  0  0  0  0  0  0  0  0  0  0  0
   35.8850   35.2767  -13.2750 C   0  0  2  0  0  0  0  0  0  0  0  0
   36.6365   34.4778  -12.2953 N   0  0  0  0  0  0  0  0  0  0  0  0
   35.8514   41.9968  -12.6286 C   0  0  2  0  0  0  0  0  0  0  0  0
   37.0912   41.8900  -13.3472 O   0  0  0  0  0  0  0  0  0  0  0  0
   39.8495   44.3519  -14.1656 C   0  0  1  0  0  0  0  0  0  0  0  0
   39.1574   45.5731  -14.4387 O   0  0  0  0  0  0  0  0  0  0  0  0
   40.4820   37.3365  -12.8385 C   0  0  2  0  0  0  0  0  0  0  0  0
   41.2725   37.9873  -13.8367 O   0  0  0  0  0  0  0  0  0  0  0  0
   35.6652   36.6828  -12.7029 C   0  0  2  0  0  0  0  0  0  0  0  0
   36.0227   41.4234  -11.2308 C   0  0  2  0  0  0  0  0  0  0  0  0
   35.7552   40.0074  -11.3245 O   0  0  0  0  0  0  0  0  0  0  0  0
   40.4026   44.4086  -12.7406 C   0  0  2  0  0  0  0  0  0  0  0  0
   41.2776   43.2950  -12.5399 O   0  0  0  0  0  0  0  0  0  0  0  0
   39.5233   36.3482  -13.5042 C   0  0  2  0  0  0  0  0  0  0  0  0
   38.6966   35.7111  -12.5103 O   0  0  0  0  0  0  0  0  0  0  0  0
   34.6956   37.5437  -13.5099 C   0  0  2  0  0  0  0  0  0  0  0  0
   34.3421   38.7072  -12.7443 O   0  0  0  0  0  0  0  0  0  0  0  0
   35.0413   42.1063  -10.2757 C   0  0  0  0  0  0  0  0  0  0  0  0
   35.4006   41.7873   -8.9296 O   0  0  0  0  0  0  0  0  0  0  0  0
   39.2355   44.3568  -11.7511 C   0  0  1  0  0  0  0  0  0  0  0  0
   38.5225   43.1239  -11.9532 O   0  0  0  0  0  0  0  0  0  0  0  0
   40.3687   35.2998  -14.2319 C   0  0  0  0  0  0  0  0  0  0  0  0
   39.4979   34.3705  -14.9661 O   0  0  0  0  0  0  0  0  0  0  0  0
   33.4333   36.7532  -13.8743 C   0  0  1  0  0  0  0  0  0  0  0  0
   32.5814   37.5472  -14.7031 O   0  0  0  0  0  0  0  0  0  0  0  0
   39.7051   44.4306  -10.2977 C   0  0  0  0  0  0  0  0  0  0  0  0
   38.5373   44.3646   -9.4081 N   0  0  0  0  0  0  0  0  0  0  0  0
  1  2  1  6  0  0  0
  1  7  1  0  0  0  0
  1 30  1  0  0  0  0
  3  4  1  1  0  0  0
  3  9  1  0  0  0  0
  3 39  1  0  0  0  0
  5 10  1  0  0  0  0
  5 26  1  0  0  0  0
  5 32  1  1  0  0  0
  6 12  1  0  0  0  0
  6 36  1  0  0  0  0
  6 19  1  6  0  0  0
  7  8  1  6  0  0  0
  7 14  1  0  0  0  0
  9 16  1  0  0  0  0
 10 11  1  6  0  0  0
 10 18  1  0  0  0  0
 12 13  1  1  0  0  0
 12 20  1  0  0  0  0
 14 15  1  1  0  0  0
 14 22  1  0  0  0  0
 16 17  1  1  0  0  0
 16 24  1  0  0  0  0
 18 19  1  6  0  0  0
 18 25  1  0  0  0  0
 20 21  1  1  0  0  0
 20 27  1  0  0  0  0
 22 23  1  6  0  0  0
 22 29  1  0  0  0  0
 24  2  1  6  0  0  0
 24 31  1  0  0  0  0
 25 26  1  0  0  0  0
 25 33  1  1  0  0  0
 27 28  1  1  0  0  0
 27 35  1  0  0  0  0
 29 30  1  0  0  0  0
 29 37  1  1  0  0  0
 31 32  1  1  0  0  0
 31 39  1  0  0  0  0
 33 34  1  0  0  0  0
 35 36  1  0  0  0  0
 35 41  1  1  0  0  0
 37 38  1  0  0  0  0
 39 40  1  6  0  0  0
 41 42  1  0  0  0  0
M  END
>  <CHROM.1>
-142.62365310,123.58586247,-161.02743374,156.03682703,-63.74541408,-167.33006419
-176.30403960,75.11520784,-179.53307113,37.37438052,39.53250773,-12.73718253
-1.94719410,-0.00605720,0.16849385

>  <Name>
3c44_lig

>  <RI>
0

>  <Rbt.Current_Directory>
/home/itssahil/PROJECTS/Mol_Feturizer/New_Systems/rnas/3c44

>  <Rbt.Executable>
rbdock ($Id: //depot/dev/client3/rdock/2013.1/src/exe/rbdock.cxx#4 $)

>  <Rbt.Library>
libRbt.so (2013.1, Build901 2013/11/27)

>  <Rbt.Parameter_File>
/export/apps/rDock/src/rDock_2013.1_src/data/scripts/dock_solv.prm

>  <Rbt.Receptor>
prm/pocket_docking_5.prm

>  <SCORE>
-19.9938

>  <SCORE.INTER>
-25.9948

>  <SCORE.INTER.CONST>
1

>  <SCORE.INTER.POLAR>
-2.27214

>  <SCORE.INTER.ROT>
9

>  <SCORE.INTER.SOLV>
14.1647

>  <SCORE.INTER.VDW>
-24.0776

>  <SCORE.INTER.norm>
-0.618924

>  <SCORE.INTRA>
6.001

>  <SCORE.INTRA.DIHEDRAL>
3.17084

>  <SCORE.INTRA.DIHEDRAL.0>
14.8538

>  <SCORE.INTRA.POLAR>
0

>  <SCORE.INTRA.POLAR.0>
0

>  <SCORE.INTRA.REPUL>
0.10199

>  <SCORE.INTRA.REPUL.0>
0

>  <SCORE.INTRA.SOLV>
0.663721

>  <SCORE.INTRA.SOLV.lig_0>
-100.951

>  <SCORE.INTRA.VDW>
3.57377

>  <SCORE.INTRA.VDW.0>
-5.71388

>  <SCORE.INTRA.norm>
0.142881

>  <SCORE.RESTR>
0

>  <SCORE.RESTR.CAVITY>
0

>  <SCORE.RESTR.norm>
0

>  <SCORE.SYSTEM>
0

>  <SCORE.SYSTEM.CONST>
0

>  <SCORE.SYSTEM.DIHEDRAL>
0

>  <SCORE.SYSTEM.SOLV>
0

>  <SCORE.SYSTEM.norm>
0

>  <SCORE.heavy>
42

>  <SCORE.norm>
-0.476043

>  <RMSD>
4.154

$$$$
3c44_lig
 OpenBabel11021811463D
libRbt.so/2013.1/901 2013/11/27
 42 45  0  0  0  0  0  0  0  0999 V2000
   37.5485   33.2108  -11.8956 C   0  0  2  0  0  0  0  0  0  0  0  0
   38.3191   32.9407  -13.0767 O   0  0  0  0  0  0  0  0  0  0  0  0
   40.7791   35.5721  -15.1295 C   0  0  2  0  0  0  0  0  0  0  0  0
   41.4704   36.5931  -15.9317 N   0  0  0  0  0  0  0  0  0  0  0  0
   38.1940   37.1079  -12.3560 C   0  0  1  0  0  0  0  0  0  0  0  0
   36.7741   40.8540  -13.2733 C   0  0  1  0  0  0  0  0  0  0  0  0
   37.0771   31.8841  -11.2909 C   0  0  2  0  0  0  0  0  0  0  0  0
   38.2147   30.9848  -11.0495 N   0  0  0  0  0  0  0  0  0  0  0  0
   39.8297   34.7493  -16.0051 C   0  0  0  0  0  0  0  0  0  0  0  0
   36.6730   37.2567  -12.2963 C   0  0  2  0  0  0  0  0  0  0  0  0
   36.0951   36.8685  -13.5441 O   0  0  0  0  0  0  0  0  0  0  0  0
   36.5545   41.4734  -14.6575 C   0  0  2  0  0  0  0  0  0  0  0  0
   37.6384   41.0234  -15.5417 N   0  0  0  0  0  0  0  0  0  0  0  0
   36.0704   31.1820  -12.2055 C   0  0  1  0  0  0  0  0  0  0  0  0
   35.5419   30.0353  -11.5322 O   0  0  0  0  0  0  0  0  0  0  0  0
   39.2667   33.6139  -15.1437 C   0  0  2  0  0  0  0  0  0  0  0  0
   38.3011   32.8362  -15.9347 N   0  0  0  0  0  0  0  0  0  0  0  0
   36.5686   38.7740  -12.1562 C   0  0  2  0  0  0  0  0  0  0  0  0
   36.8893   39.4254  -13.3963 O   0  0  0  0  0  0  0  0  0  0  0  0
   36.5754   43.0060  -14.5879 C   0  0  1  0  0  0  0  0  0  0  0  0
   35.4035   43.4918  -13.9280 O   0  0  0  0  0  0  0  0  0  0  0  0
   34.9301   32.1402  -12.5548 C   0  0  2  0  0  0  0  0  0  0  0  0
   34.0510   31.5181  -13.4956 O   0  0  0  0  0  0  0  0  0  0  0  0
   38.5745   34.1134  -13.8694 C   0  0  2  0  0  0  0  0  0  0  0  0
   37.6727   39.0355  -11.1439 C   0  0  2  0  0  0  0  0  0  0  0  0
   38.6676   38.0066  -11.3360 O   0  0  0  0  0  0  0  0  0  0  0  0
   37.8078   43.5051  -13.8318 C   0  0  2  0  0  0  0  0  0  0  0  0
   38.9747   43.2123  -14.6056 O   0  0  0  0  0  0  0  0  0  0  0  0
   35.5057   33.4225  -13.1577 C   0  0  2  0  0  0  0  0  0  0  0  0
   36.4206   34.0404  -12.2313 O   0  0  0  0  0  0  0  0  0  0  0  0
   39.3872   35.1315  -13.0721 C   0  0  2  0  0  0  0  0  0  0  0  0
   38.5449   35.7406  -12.0800 O   0  0  0  0  0  0  0  0  0  0  0  0
   37.0912   38.9808   -9.7296 C   0  0  0  0  0  0  0  0  0  0  0  0
   36.4853   37.7029   -9.5224 O   0  0  0  0  0  0  0  0  0  0  0  0
   37.8768   42.8024  -12.4734 C   0  0  1  0  0  0  0  0  0  0  0  0
   37.9788   41.3854  -12.6991 O   0  0  0  0  0  0  0  0  0  0  0  0
   34.3352   34.3663  -13.4454 C   0  0  0  0  0  0  0  0  0  0  0  0
   33.4457   33.7739  -14.4547 O   0  0  0  0  0  0  0  0  0  0  0  0
   39.9734   36.2077  -13.9936 C   0  0  1  0  0  0  0  0  0  0  0  0
   40.8017   37.0972  -13.2415 O   0  0  0  0  0  0  0  0  0  0  0  0
   39.0750   43.2641  -11.6430 C   0  0  0  0  0  0  0  0  0  0  0  0
   39.1755   42.4331  -10.4351 N   0  0  0  0  0  0  0  0  0  0  0  0
  1  2  1  6  0  0  0
  1  7  1  0  0  0  0
  1 30  1  0  0  0  0
  3  4  1  6  0  0  0
  3  9  1  0  0  0  0
  3 39  1  0  0  0  0
  5 10  1  0  0  0  0
  5 26  1  0  0  0  0
  5 32  1  1  0  0  0
  6 12  1  0  0  0  0
  6 36  1  0  0  0  0
  6 19  1  6  0  0  0
  7  8  1  6  0  0  0
  7 14  1  0  0  0  0
  9 16  1  0  0  0  0
 10 11  1  6  0  0  0
 10 18  1  0  0  0  0
 12 13  1  6  0  0  0
 12 20  1  0  0  0  0
 14 15  1  1  0  0  0
 14 22  1  0  0  0  0
 16 17  1  6  0  0  0
 16 24  1  0  0  0  0
 18 19  1  6  0  0  0
 18 25  1  0  0  0  0
 20 21  1  1  0  0  0
 20 27  1  0  0  0  0
 22 23  1  6  0  0  0
 22 29  1  0  0  0  0
 24  2  1  1  0  0  0
 24 31  1  0  0  0  0
 25 26  1  0  0  0  0
 25 33  1  1  0  0  0
 27 28  1  6  0  0  0
 27 35  1  0  0  0  0
 29 30  1  0  0  0  0
 29 37  1  1  0  0  0
 31 32  1  1  0  0  0
 31 39  1  0  0  0  0
 33 34  1  0  0  0  0
 35 36  1  0  0  0  0
 35 41  1  6  0  0  0
 37 38  1  0  0  0  0
 39 40  1  1  0  0  0
 41 42  1  0  0  0  0
M  END
>  <CHROM.1>
167.90292449,126.83300045,-157.16916263,179.20366477,-174.11664570,57.86347567
-63.52276674,-108.09152514,-172.90451633,37.50979590,36.91950462,-13.03265768
1.69901146,-0.51037099,-3.10136305

>  <Name>
3c44_lig

>  <RI>
224

>  <Rbt.Current_Directory>
/home/itssahil/PROJECTS/Mol_Feturizer/New_Systems/rnas/3c44

>  <Rbt.Executable>
rbdock ($Id: //depot/dev/client3/rdock/2013.1/src/exe/rbdock.cxx#4 $)

>  <Rbt.Library>
libRbt.so (2013.1, Build901 2013/11/27)

>  <Rbt.Parameter_File>
/export/apps/rDock/src/rDock_2013.1_src/data/scripts/dock_solv.prm

>  <Rbt.Receptor>
prm/pocket_docking_3.prm

>  <SCORE>
-13.8456

>  <SCORE.INTER>
-21.1543

>  <SCORE.INTER.CONST>
1

>  <SCORE.INTER.POLAR>
-1.89874

>  <SCORE.INTER.ROT>
9

>  <SCORE.INTER.SOLV>
19.2161

>  <SCORE.INTER.VDW>
-23.7791

>  <SCORE.INTER.norm>
-0.503674

>  <SCORE.INTRA>
6.64235

>  <SCORE.INTRA.DIHEDRAL>
2.32123

>  <SCORE.INTRA.DIHEDRAL.0>
14.8538

>  <SCORE.INTRA.POLAR>
0

>  <SCORE.INTRA.POLAR.0>
0

>  <SCORE.INTRA.REPUL>
0

>  <SCORE.INTRA.REPUL.0>
0

>  <SCORE.INTRA.SOLV>
-2.61602

>  <SCORE.INTRA.SOLV.lig_0>
-100.951

>  <SCORE.INTRA.VDW>
6.78974

>  <SCORE.INTRA.VDW.0>
-5.71388

>  <SCORE.INTRA.norm>
0.158151

>  <SCORE.RESTR>
0.666362

>  <SCORE.RESTR.CAVITY>
0.666362

>  <SCORE.RESTR.norm>
0.0158658

>  <SCORE.SYSTEM>
0

>  <SCORE.SYSTEM.CONST>
0

>  <SCORE.SYSTEM.DIHEDRAL>
0

>  <SCORE.SYSTEM.SOLV>
0

>  <SCORE.SYSTEM.norm>
0

>  <SCORE.heavy>
42

>  <SCORE.norm>
-0.329657

>  <RMSD>
4.227

$$$$
3c44_lig
 OpenBabel11021811463D
libRbt.so/2013.1/901 2013/11/27
 42 45  0  0  0  0  0  0  0  0999 V2000
   35.9749   37.2934  -14.3954 C   0  0  2  0  0  0  0  0  0  0  0  0
   35.3324   36.4276  -13.4470 O   0  0  0  0  0  0  0  0  0  0  0  0
   35.8988   32.5855  -11.9956 C   0  0  2  0  0  0  0  0  0  0  0  0
   36.1404   31.1682  -11.6844 N   0  0  0  0  0  0  0  0  0  0  0  0
   38.2448   36.7919  -12.9958 C   0  0  1  0  0  0  0  0  0  0  0  0
   38.4979   40.6983  -11.4324 C   0  0  1  0  0  0  0  0  0  0  0  0
   34.9483   38.2951  -14.9347 C   0  0  2  0  0  0  0  0  0  0  0  0
   34.2961   39.0202  -13.8348 N   0  0  0  0  0  0  0  0  0  0  0  0
   34.8085   32.7255  -13.0618 C   0  0  0  0  0  0  0  0  0  0  0  0
   38.6940   36.9998  -11.5487 C   0  0  2  0  0  0  0  0  0  0  0  0
   37.5638   36.9557  -10.6755 O   0  0  0  0  0  0  0  0  0  0  0  0
   37.3342   41.6637  -11.6807 C   0  0  2  0  0  0  0  0  0  0  0  0
   36.8680   41.4788  -13.0619 N   0  0  0  0  0  0  0  0  0  0  0  0
   33.8778   37.5963  -15.7767 C   0  0  1  0  0  0  0  0  0  0  0  0
   33.0392   38.5828  -16.3856 O   0  0  0  0  0  0  0  0  0  0  0  0
   34.5010   34.2182  -13.2214 C   0  0  2  0  0  0  0  0  0  0  0  0
   33.4995   34.3977  -14.2833 N   0  0  0  0  0  0  0  0  0  0  0  0
   39.1908   38.4414  -11.6385 C   0  0  2  0  0  0  0  0  0  0  0  0
   38.0882   39.3564  -11.7490 O   0  0  0  0  0  0  0  0  0  0  0  0
   37.7753   43.1217  -11.4974 C   0  0  1  0  0  0  0  0  0  0  0  0
   38.0167   43.4002  -10.1157 O   0  0  0  0  0  0  0  0  0  0  0  0
   34.5430   36.7496  -16.8633 C   0  0  2  0  0  0  0  0  0  0  0  0
   33.5458   36.0134  -17.5764 O   0  0  0  0  0  0  0  0  0  0  0  0
   35.7410   35.0534  -13.5639 C   0  0  2  0  0  0  0  0  0  0  0  0
   39.9455   38.3927  -12.9576 C   0  0  2  0  0  0  0  0  0  0  0  0
   39.2985   37.3912  -13.7723 O   0  0  0  0  0  0  0  0  0  0  0  0
   39.0520   43.4132  -12.2878 C   0  0  2  0  0  0  0  0  0  0  0  0
   38.7545   43.3510  -13.6855 O   0  0  0  0  0  0  0  0  0  0  0  0
   35.5371   35.7811  -16.2208 C   0  0  2  0  0  0  0  0  0  0  0  0
   36.5277   36.5107  -15.4700 O   0  0  0  0  0  0  0  0  0  0  0  0
   36.9495   34.7769  -12.6721 C   0  0  2  0  0  0  0  0  0  0  0  0
   38.1168   35.3823  -13.2515 O   0  0  0  0  0  0  0  0  0  0  0  0
   41.4080   38.0271  -12.6951 C   0  0  0  0  0  0  0  0  0  0  0  0
   42.0996   37.9413  -13.9430 O   0  0  0  0  0  0  0  0  0  0  0  0
   40.1135   42.3729  -11.9202 C   0  0  1  0  0  0  0  0  0  0  0  0
   39.6102   41.0694  -12.2622 O   0  0  0  0  0  0  0  0  0  0  0  0
   36.2103   34.9920  -17.3467 C   0  0  0  0  0  0  0  0  0  0  0  0
   37.2029   34.0627  -16.7879 O   0  0  0  0  0  0  0  0  0  0  0  0
   37.1715   33.2694  -12.5014 C   0  0  1  0  0  0  0  0  0  0  0  0
   38.2500   33.0336  -11.5936 O   0  0  0  0  0  0  0  0  0  0  0  0
   41.4335   42.6081  -12.6555 C   0  0  0  0  0  0  0  0  0  0  0  0
   41.2280   42.4029  -14.0961 N   0  0  0  0  0  0  0  0  0  0  0  0
  1  2  1  1  0  0  0
  1  7  1  0  0  0  0
  1 30  1  0  0  0  0
  3  4  1  6  0  0  0
  3  9  1  0  0  0  0
  3 39  1  0  0  0  0
  5 10  1  0  0  0  0
  5 26  1  0  0  0  0
  5 32  1  6  0  0  0
  6 12  1  0  0  0  0
  6 36  1  0  0  0  0
  6 19  1  6  0  0  0
  7  8  1  1  0  0  0
  7 14  1  0  0  0  0
  9 16  1  0  0  0  0
 10 11  1  1  0  0  0
 10 18  1  0  0  0  0
 12 13  1  6  0  0  0
 12 20  1  0  0  0  0
 14 15  1  6  0  0  0
 14 22  1  0  0  0  0
 16 17  1  6  0  0  0
 16 24  1  0  0  0  0
 18 19  1  6  0  0  0
 18 25  1  0  0  0  0
 20 21  1  1  0  0  0
 20 27  1  0  0  0  0
 22 23  1  1  0  0  0
 22 29  1  0  0  0  0
 24  2  1  1  0  0  0
 24 31  1  0  0  0  0
 25 26  1  0  0  0  0
 25 33  1  1  0  0  0
 27 28  1  6  0  0  0
 27 35  1  0  0  0  0
 29 30  1  0  0  0  0
 29 37  1  6  0  0  0
 31 32  1  6  0  0  0
 31 39  1  0  0  0  0
 33 34  1  0  0  0  0
 35 36  1  0  0  0  0
 35 41  1  6  0  0  0
 37 38  1  0  0  0  0
 39 40  1  1  0  0  0
 41 42  1  0  0  0  0
M  END
>  <CHROM.1>
139.18574761,75.10647597,174.97301631,162.63350474,-145.67343872,178.14964737
178.70341999,80.61317581,-65.52761457,37.28898236,37.71319861,-13.43522765
2.16674496,0.64695778,3.02043183

>  <Name>
3c44_lig

>  <RI>
224

>  <Rbt.Current_Directory>
/home/itssahil/PROJECTS/Mol_Feturizer/New_Systems/rnas/3c44

>  <Rbt.Executable>
rbdock ($Id: //depot/dev/client3/rdock/2013.1/src/exe/rbdock.cxx#4 $)

>  <Rbt.Library>
libRbt.so (2013.1, Build901 2013/11/27)

>  <Rbt.Parameter_File>
/export/apps/rDock/src/rDock_2013.1_src/data/scripts/dock_solv.prm

>  <Rbt.Receptor>
prm/pocket_docking_3.prm

>  <SCORE>
-3.53821

>  <SCORE.INTER>
-10.0214

>  <SCORE.INTER.CONST>
1

>  <SCORE.INTER.POLAR>
-1.78187

>  <SCORE.INTER.ROT>
9

>  <SCORE.INTER.SOLV>
13.6896

>  <SCORE.INTER.VDW>
-14.9046

>  <SCORE.INTER.norm>
-0.238605

>  <SCORE.INTRA>
5.40934

>  <SCORE.INTRA.DIHEDRAL>
-0.0294657

>  <SCORE.INTRA.DIHEDRAL.0>
14.8538

>  <SCORE.INTRA.POLAR>
0

>  <SCORE.INTRA.POLAR.0>
0

>  <SCORE.INTRA.REPUL>
0

>  <SCORE.INTRA.REPUL.0>
0

>  <SCORE.INTRA.SOLV>
1.73355

>  <SCORE.INTRA.SOLV.lig_0>
-100.951

>  <SCORE.INTRA.VDW>
4.5573

>  <SCORE.INTRA.VDW.0>
-5.71388

>  <SCORE.INTRA.norm>
0.128794

>  <SCORE.RESTR>
1.07386

>  <SCORE.RESTR.CAVITY>
1.07386

>  <SCORE.RESTR.norm>
0.0255682

>  <SCORE.SYSTEM>
0

>  <SCORE.SYSTEM.CONST>
0

>  <SCORE.SYSTEM.DIHEDRAL>
0

>  <SCORE.SYSTEM.SOLV>
0

>  <SCORE.SYSTEM.norm>
0

>  <SCORE.heavy>
42

>  <SCORE.norm>
-0.0842432

>  <RMSD>
4.451

$$$$
3c44_lig
 OpenBabel11021811463D
libRbt.so/2013.1/901 2013/11/27
 42 45  0  0  0  0  0  0  0  0999 V2000
   37.7049   34.9302  -13.0454 C   0  0  2  0  0  0  0  0  0  0  0  0
   37.0735   35.0038  -14.3329 O   0  0  0  0  0  0  0  0  0  0  0  0
   34.8079   38.2426  -15.5847 C   0  0  2  0  0  0  0  0  0  0  0  0
   33.8410   39.2975  -15.9256 N   0  0  0  0  0  0  0  0  0  0  0  0
   36.9005   38.2487  -11.6917 C   0  0  1  0  0  0  0  0  0  0  0  0
   36.9881   40.1544   -8.4316 C   0  0  1  0  0  0  0  0  0  0  0  0
   39.0729   34.2566  -13.1962 C   0  0  2  0  0  0  0  0  0  0  0  0
   39.8889   34.9479  -14.2048 N   0  0  0  0  0  0  0  0  0  0  0  0
   34.2959   36.8734  -16.0411 C   0  0  0  0  0  0  0  0  0  0  0  0
   37.4337   37.8607  -10.3117 C   0  0  2  0  0  0  0  0  0  0  0  0
   36.3691   37.8635   -9.3586 O   0  0  0  0  0  0  0  0  0  0  0  0
   36.3811   41.5098   -8.0545 C   0  0  2  0  0  0  0  0  0  0  0  0
   37.4196   42.5384   -8.2052 N   0  0  0  0  0  0  0  0  0  0  0  0
   38.9283   32.7854  -13.5932 C   0  0  1  0  0  0  0  0  0  0  0  0
   40.2157   32.1615  -13.5668 O   0  0  0  0  0  0  0  0  0  0  0  0
   35.4125   35.8528  -15.7972 C   0  0  2  0  0  0  0  0  0  0  0  0
   34.9352   34.5118  -16.1673 N   0  0  0  0  0  0  0  0  0  0  0  0
   38.3406   39.0593  -10.0403 C   0  0  2  0  0  0  0  0  0  0  0  0
   37.5639   40.2324   -9.7474 O   0  0  0  0  0  0  0  0  0  0  0  0
   35.8892   41.5112   -6.6012 C   0  0  1  0  0  0  0  0  0  0  0  0
   34.7256   40.6908   -6.4673 O   0  0  0  0  0  0  0  0  0  0  0  0
   37.9946   32.0726  -12.6132 C   0  0  2  0  0  0  0  0  0  0  0  0
   37.7751   30.7287  -13.0498 O   0  0  0  0  0  0  0  0  0  0  0  0
   35.8913   35.8232  -14.3404 C   0  0  2  0  0  0  0  0  0  0  0  0
   39.0063   39.2162  -11.3984 C   0  0  2  0  0  0  0  0  0  0  0  0
   38.0631   38.7413  -12.3833 O   0  0  0  0  0  0  0  0  0  0  0  0
   36.9707   40.9884   -5.6543 C   0  0  2  0  0  0  0  0  0  0  0  0
   38.0482   41.9285   -5.6194 O   0  0  0  0  0  0  0  0  0  0  0  0
   36.6599   32.8163  -12.5447 C   0  0  2  0  0  0  0  0  0  0  0  0
   36.8725   34.1829  -12.1389 O   0  0  0  0  0  0  0  0  0  0  0  0
   36.1908   37.1998  -13.7505 C   0  0  2  0  0  0  0  0  0  0  0  0
   36.3445   37.0840  -12.3265 O   0  0  0  0  0  0  0  0  0  0  0  0
   40.2966   38.3942  -11.4317 C   0  0  0  0  0  0  0  0  0  0  0  0
   40.9686   38.6292  -12.6711 O   0  0  0  0  0  0  0  0  0  0  0  0
   37.4623   39.6301   -6.1616 C   0  0  1  0  0  0  0  0  0  0  0  0
   38.0077   39.8078   -7.4809 O   0  0  0  0  0  0  0  0  0  0  0  0
   35.7796   32.0969  -11.5195 C   0  0  0  0  0  0  0  0  0  0  0  0
   35.3252   30.8080  -12.0609 O   0  0  0  0  0  0  0  0  0  0  0  0
   35.0685   38.1921  -14.0771 C   0  0  1  0  0  0  0  0  0  0  0  0
   35.4101   39.4931  -13.5937 O   0  0  0  0  0  0  0  0  0  0  0  0
   38.5351   39.0269   -5.2540 C   0  0  0  0  0  0  0  0  0  0  0  0
   38.7048   37.6051   -5.5845 N   0  0  0  0  0  0  0  0  0  0  0  0
  1  2  1  6  0  0  0
  1  7  1  0  0  0  0
  1 30  1  0  0  0  0
  3  4  1  1  0  0  0
  3  9  1  0  0  0  0
  3 39  1  0  0  0  0
  5 10  1  0  0  0  0
  5 26  1  0  0  0  0
  5 32  1  6  0  0  0
  6 12  1  0  0  0  0
  6 36  1  0  0  0  0
  6 19  1  6  0  0  0
  7  8  1  6  0  0  0
  7 14  1  0  0  0  0
  9 16  1  0  0  0  0
 10 11  1  1  0  0  0
 10 18  1  0  0  0  0
 12 13  1  1  0  0  0
 12 20  1  0  0  0  0
 14 15  1  1  0  0  0
 14 22  1  0  0  0  0
 16 17  1  1  0  0  0
 16 24  1  0  0  0  0
 18 19  1  6  0  0  0
 18 25  1  0  0  0  0
 20 21  1  6  0  0  0
 20 27  1  0  0  0  0
 22 23  1  6  0  0  0
 22 29  1  0  0  0  0
 24  2  1  6  0  0  0
 24 31  1  0  0  0  0
 25 26  1  0  0  0  0
 25 33  1  1  0  0  0
 27 28  1  6  0  0  0
 27 35  1  0  0  0  0
 29 30  1  0  0  0  0
 29 37  1  1  0  0  0
 31 32  1  1  0  0  0
 31 39  1  0  0  0  0
 33 34  1  0  0  0  0
 35 36  1  0  0  0  0
 35 41  1  1  0  0  0
 37 38  1  0  0  0  0
 39 40  1  6  0  0  0
 41 42  1  0  0  0  0
M  END
>  <CHROM.1>
-169.82305326,-161.63223751,170.00705256,73.66897964,176.58350142,-175.52720272
-71.95816565,167.64035226,165.28697186,37.14616826,37.19657770,-11.31827363
-1.66479799,-1.09906734,0.71223129

>  <Name>
3c44_lig

>  <RI>
0

>  <Rbt.Current_Directory>
/home/itssahil/PROJECTS/Mol_Feturizer/New_Systems/rnas/3c44

>  <Rbt.Executable>
rbdock ($Id: //depot/dev/client3/rdock/2013.1/src/exe/rbdock.cxx#4 $)

>  <Rbt.Library>
libRbt.so (2013.1, Build901 2013/11/27)

>  <Rbt.Parameter_File>
/export/apps/rDock/src/rDock_2013.1_src/data/scripts/dock_solv.prm

>  <Rbt.Receptor>
prm/pocket_docking_7.prm

>  <SCORE>
-22.025

>  <SCORE.INTER>
-21.3375

>  <SCORE.INTER.CONST>
1

>  <SCORE.INTER.POLAR>
-2.89493

>  <SCORE.INTER.ROT>
9

>  <SCORE.INTER.SOLV>
21.4992

>  <SCORE.INTER.VDW>
-21.3417

>  <SCORE.INTER.norm>
-0.508037

>  <SCORE.INTRA>
-1.19766

>  <SCORE.INTRA.DIHEDRAL>
-8.96511

>  <SCORE.INTRA.DIHEDRAL.0>
14.8538

>  <SCORE.INTRA.POLAR>
0

>  <SCORE.INTRA.POLAR.0>
0

>  <SCORE.INTRA.REPUL>
0

>  <SCORE.INTRA.REPUL.0>
0

>  <SCORE.INTRA.SOLV>
-4.8742

>  <SCORE.INTRA.SOLV.lig_0>
-100.951

>  <SCORE.INTRA.VDW>
5.722

>  <SCORE.INTRA.VDW.0>
-5.71388

>  <SCORE.INTRA.norm>
-0.0285157

>  <SCORE.RESTR>
0.51022

>  <SCORE.RESTR.CAVITY>
0.51022

>  <SCORE.RESTR.norm>
0.0121481

>  <SCORE.SYSTEM>
0

>  <SCORE.SYSTEM.CONST>
0

>  <SCORE.SYSTEM.DIHEDRAL>
0

>  <SCORE.SYSTEM.SOLV>
0

>  <SCORE.SYSTEM.norm>
0

>  <SCORE.heavy>
42

>  <SCORE.norm>
-0.524404

>  <RMSD>
4.458

$$$$
3c44_lig
 OpenBabel11021811463D
libRbt.so/2013.1/901 2013/11/27
 42 45  0  0  0  0  0  0  0  0999 V2000
   37.4222   35.5730  -15.7555 C   0  0  2  0  0  0  0  0  0  0  0  0
   36.0338   35.2437  -15.9157 O   0  0  0  0  0  0  0  0  0  0  0  0
   32.6206   37.5455  -15.4239 C   0  0  2  0  0  0  0  0  0  0  0  0
   31.4647   38.3712  -15.0421 N   0  0  0  0  0  0  0  0  0  0  0  0
   36.5318   38.5306  -14.1196 C   0  0  1  0  0  0  0  0  0  0  0  0
   37.8754   39.5100  -10.2502 C   0  0  1  0  0  0  0  0  0  0  0  0
   38.2394   34.8272  -16.8156 C   0  0  2  0  0  0  0  0  0  0  0  0
   37.7276   35.1078  -18.1648 N   0  0  0  0  0  0  0  0  0  0  0  0
   32.6710   36.2662  -14.5836 C   0  0  0  0  0  0  0  0  0  0  0  0
   37.9089   39.1719  -13.9423 C   0  0  2  0  0  0  0  0  0  0  0  0
   38.9055   38.1574  -13.8027 O   0  0  0  0  0  0  0  0  0  0  0  0
   38.0375   38.4373   -9.1682 C   0  0  2  0  0  0  0  0  0  0  0  0
   36.8788   37.5362   -9.2344 N   0  0  0  0  0  0  0  0  0  0  0  0
   38.2144   33.3155  -16.5760 C   0  0  1  0  0  0  0  0  0  0  0  0
   39.1138   32.6788  -17.4887 O   0  0  0  0  0  0  0  0  0  0  0  0
   33.7985   35.3885  -15.1372 C   0  0  2  0  0  0  0  0  0  0  0  0
   33.9183   34.1748  -14.3152 N   0  0  0  0  0  0  0  0  0  0  0  0
   37.7042   39.8504  -12.5893 C   0  0  2  0  0  0  0  0  0  0  0  0
   37.6816   38.8806  -11.5290 O   0  0  0  0  0  0  0  0  0  0  0  0
   38.0974   39.0659   -7.7698 C   0  0  1  0  0  0  0  0  0  0  0  0
   39.3315   39.7655   -7.5894 O   0  0  0  0  0  0  0  0  0  0  0  0
   38.6430   33.0104  -15.1395 C   0  0  2  0  0  0  0  0  0  0  0  0
   38.5127   31.6090  -14.8867 O   0  0  0  0  0  0  0  0  0  0  0  0
   35.1557   36.1023  -15.1669 C   0  0  2  0  0  0  0  0  0  0  0  0
   36.3112   40.4301  -12.7780 C   0  0  2  0  0  0  0  0  0  0  0  0
   35.6169   39.5585  -13.6965 O   0  0  0  0  0  0  0  0  0  0  0  0
   36.9418   40.0452   -7.5575 C   0  0  2  0  0  0  0  0  0  0  0  0
   35.7151   39.3105   -7.5166 O   0  0  0  0  0  0  0  0  0  0  0  0
   37.7619   33.7936  -14.1651 C   0  0  2  0  0  0  0  0  0  0  0  0
   37.8582   35.2065  -14.4332 O   0  0  0  0  0  0  0  0  0  0  0  0
   35.1169   37.4982  -15.7853 C   0  0  2  0  0  0  0  0  0  0  0  0
   36.3505   38.1784  -15.5023 O   0  0  0  0  0  0  0  0  0  0  0  0
   36.4213   41.8482  -13.3424 C   0  0  0  0  0  0  0  0  0  0  0  0
   35.1097   42.3988  -13.4819 O   0  0  0  0  0  0  0  0  0  0  0  0
   36.9240   41.0519   -8.7108 C   0  0  1  0  0  0  0  0  0  0  0  0
   36.7374   40.3304   -9.9412 O   0  0  0  0  0  0  0  0  0  0  0  0
   38.2577   33.4948  -12.7480 C   0  0  0  0  0  0  0  0  0  0  0  0
   37.4156   34.1879  -11.7623 O   0  0  0  0  0  0  0  0  0  0  0  0
   33.9351   38.3076  -15.2381 C   0  0  1  0  0  0  0  0  0  0  0  0
   33.8651   39.5754  -15.8944 O   0  0  0  0  0  0  0  0  0  0  0  0
   35.8053   42.0836   -8.5614 C   0  0  0  0  0  0  0  0  0  0  0  0
   35.9345   43.0941   -9.6206 N   0  0  0  0  0  0  0  0  0  0  0  0
  1  2  1  1  0  0  0
  1  7  1  0  0  0  0
  1 30  1  0  0  0  0
  3  4  1  1  0  0  0
  3  9  1  0  0  0  0
  3 39  1  0  0  0  0
  5 10  1  0  0  0  0
  5 26  1  0  0  0  0
  5 32  1  6  0  0  0
  6 12  1  0  0  0  0
  6 36  1  0  0  0  0
  6 19  1  6  0  0  0
  7  8  1  6  0  0  0
  7 14  1  0  0  0  0
  9 16  1  0  0  0  0
 10 11  1  1  0  0  0
 10 18  1  0  0  0  0
 12 13  1  1  0  0  0
 12 20  1  0  0  0  0
 14 15  1  6  0  0  0
 14 22  1  0  0  0  0
 16 17  1  1  0  0  0
 16 24  1  0  0  0  0
 18 19  1  1  0  0  0
 18 25  1  0  0  0  0
 20 21  1  6  0  0  0
 20 27  1  0  0  0  0
 22 23  1  1  0  0  0
 22 29  1  0  0  0  0
 24  2  1  6  0  0  0
 24 31  1  0  0  0  0
 25 26  1  0  0  0  0
 25 33  1  6  0  0  0
 27 28  1  6  0  0  0
 27 35  1  0  0  0  0
 29 30  1  0  0  0  0
 29 37  1  1  0  0  0
 31 32  1  1  0  0  0
 31 39  1  0  0  0  0
 33 34  1  0  0  0  0
 35 36  1  0  0  0  0
 35 41  1  1  0  0  0
 37 38  1  0  0  0  0
 39 40  1  6  0  0  0
 41 42  1  0  0  0  0
M  END
>  <CHROM.1>
-167.36957049,176.79141873,-172.30921774,163.44908031,-164.70304209,-178.41915277
-178.08864206,-69.16690582,174.15908947,36.55462223,37.58449059,-13.11684424
-1.54380647,-0.81812662,0.82039939

>  <Name>
3c44_lig

>  <RI>
0

>  <Rbt.Current_Directory>
/home/itssahil/PROJECTS/Mol_Feturizer/New_Systems/rnas/3c44

>  <Rbt.Executable>
rbdock ($Id: //depot/dev/client3/rdock/2013.1/src/exe/rbdock.cxx#4 $)

>  <Rbt.Library>
libRbt.so (2013.1, Build901 2013/11/27)

>  <Rbt.Parameter_File>
/export/apps/rDock/src/rDock_2013.1_src/data/scripts/dock_solv.prm

>  <Rbt.Receptor>
prm/pocket_docking_6.prm

>  <SCORE>
-19.4616

>  <SCORE.INTER>
-15.1549

>  <SCORE.INTER.CONST>
1

>  <SCORE.INTER.POLAR>
-2.75075

>  <SCORE.INTER.ROT>
9

>  <SCORE.INTER.SOLV>
25.5956

>  <SCORE.INTER.VDW>
-19.066

>  <SCORE.INTER.norm>
-0.360832

>  <SCORE.INTRA>
-4.30668

>  <SCORE.INTRA.DIHEDRAL>
-10.4667

>  <SCORE.INTRA.DIHEDRAL.0>
14.8538

>  <SCORE.INTRA.POLAR>
0

>  <SCORE.INTRA.POLAR.0>
0

>  <SCORE.INTRA.REPUL>
0

>  <SCORE.INTRA.REPUL.0>
0

>  <SCORE.INTRA.SOLV>
-3.57148

>  <SCORE.INTRA.SOLV.lig_0>
-100.951

>  <SCORE.INTRA.VDW>
2.71243

>  <SCORE.INTRA.VDW.0>
-5.71388

>  <SCORE.INTRA.norm>
-0.10254

>  <SCORE.RESTR>
0

>  <SCORE.RESTR.CAVITY>
0

>  <SCORE.RESTR.norm>
0

>  <SCORE.SYSTEM>
0

>  <SCORE.SYSTEM.CONST>
0

>  <SCORE.SYSTEM.DIHEDRAL>
0

>  <SCORE.SYSTEM.SOLV>
0

>  <SCORE.SYSTEM.norm>
0

>  <SCORE.heavy>
42

>  <SCORE.norm>
-0.463372

>  <RMSD>
4.525

$$$$
3c44_lig
 OpenBabel11021811463D
libRbt.so/2013.1/901 2013/11/27
 42 45  0  0  0  0  0  0  0  0999 V2000
   37.8836   36.6780  -11.9034 C   0  0  2  0  0  0  0  0  0  0  0  0
   36.9425   37.2249  -12.8399 O   0  0  0  0  0  0  0  0  0  0  0  0
   33.7439   35.1909  -14.5195 C   0  0  2  0  0  0  0  0  0  0  0  0
   32.5408   34.4419  -14.9137 N   0  0  0  0  0  0  0  0  0  0  0  0
   35.3255   39.5661  -12.8760 C   0  0  1  0  0  0  0  0  0  0  0  0
   37.9906   42.7499  -13.2209 C   0  0  1  0  0  0  0  0  0  0  0  0
   37.9399   37.5793  -10.6655 C   0  0  2  0  0  0  0  0  0  0  0  0
   36.5984   37.7717  -10.0960 N   0  0  0  0  0  0  0  0  0  0  0  0
   34.5823   34.3812  -13.5262 C   0  0  0  0  0  0  0  0  0  0  0  0
   34.7646   40.8975  -13.3777 C   0  0  2  0  0  0  0  0  0  0  0  0
   34.7952   40.9331  -14.8058 O   0  0  0  0  0  0  0  0  0  0  0  0
   38.9609   43.0023  -14.3796 C   0  0  2  0  0  0  0  0  0  0  0  0
   39.5735   41.7209  -14.7561 N   0  0  0  0  0  0  0  0  0  0  0  0
   38.5418   38.9466  -10.9994 C   0  0  1  0  0  0  0  0  0  0  0  0
   38.7200   39.6908   -9.7904 O   0  0  0  0  0  0  0  0  0  0  0  0
   35.8862   35.1484  -13.2822 C   0  0  2  0  0  0  0  0  0  0  0  0
   36.6933   34.4306  -12.2840 N   0  0  0  0  0  0  0  0  0  0  0  0
   35.8334   41.8461  -12.8386 C   0  0  2  0  0  0  0  0  0  0  0  0
   37.0511   41.7259  -13.5922 O   0  0  0  0  0  0  0  0  0  0  0  0
   40.0697   43.9806  -13.9702 C   0  0  1  0  0  0  0  0  0  0  0  0
   39.5404   45.3004  -13.8194 O   0  0  0  0  0  0  0  0  0  0  0  0
   39.8939   38.7636  -11.6911 C   0  0  2  0  0  0  0  0  0  0  0  0
   40.4009   40.0369  -12.0994 O   0  0  0  0  0  0  0  0  0  0  0  0
   35.6558   36.5838  -12.7932 C   0  0  2  0  0  0  0  0  0  0  0  0
   36.0381   41.2703  -11.4462 C   0  0  2  0  0  0  0  0  0  0  0  0
   35.7525   39.8574  -11.5323 O   0  0  0  0  0  0  0  0  0  0  0  0
   40.7169   43.5568  -12.6506 C   0  0  2  0  0  0  0  0  0  0  0  0
   41.4373   42.3388  -12.8594 O   0  0  0  0  0  0  0  0  0  0  0  0
   39.7255   37.8602  -12.9137 C   0  0  2  0  0  0  0  0  0  0  0  0
   39.1821   36.5851  -12.5186 O   0  0  0  0  0  0  0  0  0  0  0  0
   34.6361   37.3702  -13.6144 C   0  0  2  0  0  0  0  0  0  0  0  0
   34.2853   38.5733  -12.9115 O   0  0  0  0  0  0  0  0  0  0  0  0
   35.0919   41.9636  -10.4636 C   0  0  0  0  0  0  0  0  0  0  0  0
   35.4093   43.3563  -10.4127 O   0  0  0  0  0  0  0  0  0  0  0  0
   39.6210   43.3566  -11.6005 C   0  0  1  0  0  0  0  0  0  0  0  0
   38.7297   42.3270  -12.0640 O   0  0  0  0  0  0  0  0  0  0  0  0
   41.1078   37.6677  -13.5427 C   0  0  0  0  0  0  0  0  0  0  0  0
   41.9416   36.8199  -12.6785 O   0  0  0  0  0  0  0  0  0  0  0  0
   33.3795   36.5316  -13.8767 C   0  0  1  0  0  0  0  0  0  0  0  0
   32.4781   37.2521  -14.7201 O   0  0  0  0  0  0  0  0  0  0  0  0
   40.1899   42.9505  -10.2403 C   0  0  0  0  0  0  0  0  0  0  0  0
   39.1292   43.0372   -9.2269 N   0  0  0  0  0  0  0  0  0  0  0  0
  1  2  1  6  0  0  0
  1  7  1  0  0  0  0
  1 30  1  0  0  0  0
  3  4  1  1  0  0  0
  3  9  1  0  0  0  0
  3 39  1  0  0  0  0
  5 10  1  0  0  0  0
  5 26  1  0  0  0  0
  5 32  1  1  0  0  0
  6 12  1  0  0  0  0
  6 36  1  0  0  0  0
  6 19  1  6  0  0  0
  7  8  1  6  0  0  0
  7 14  1  0  0  0  0
  9 16  1  0  0  0  0
 10 11  1  6  0  0  0
 10 18  1  0  0  0  0
 12 13  1  1  0  0  0
 12 20  1  0  0  0  0
 14 15  1  1  0  0  0
 14 22  1  0  0  0  0
 16 17  1  1  0  0  0
 16 24  1  0  0  0  0
 18 19  1  6  0  0  0
 18 25  1  0  0  0  0
 20 21  1  1  0  0  0
 20 27  1  0  0  0  0
 22 23  1  6  0  0  0
 22 29  1  0  0  0  0
 24  2  1  6  0  0  0
 24 31  1  0  0  0  0
 25 26  1  0  0  0  0
 25 33  1  1  0  0  0
 27 28  1  6  0  0  0
 27 35  1  0  0  0  0
 29 30  1  0  0  0  0
 29 37  1  1  0  0  0
 31 32  1  1  0  0  0
 31 39  1  0  0  0  0
 33 34  1  0  0  0  0
 35 36  1  0  0  0  0
 35 41  1  1  0  0  0
 37 38  1  0  0  0  0
 39 40  1  6  0  0  0
 41 42  1  0  0  0  0
M  END
>  <CHROM.1>
-99.25874753,127.40370968,-155.31503697,171.44323452,-66.33650884,-62.21025818
70.70033442,71.14875673,168.80689996,37.36951778,39.58255380,-12.57460887
-2.18350542,-0.18911066,0.04063200

>  <Name>
3c44_lig

>  <RI>
0

>  <Rbt.Current_Directory>
/home/itssahil/PROJECTS/Mol_Feturizer/New_Systems/rnas/3c44

>  <Rbt.Executable>
rbdock ($Id: //depot/dev/client3/rdock/2013.1/src/exe/rbdock.cxx#4 $)

>  <Rbt.Library>
libRbt.so (2013.1, Build901 2013/11/27)

>  <Rbt.Parameter_File>
/export/apps/rDock/src/rDock_2013.1_src/data/scripts/dock_solv.prm

>  <Rbt.Receptor>
prm/pocket_docking_6.prm

>  <SCORE>
-24.1046

>  <SCORE.INTER>
-27.6271

>  <SCORE.INTER.CONST>
1

>  <SCORE.INTER.POLAR>
-3.35592

>  <SCORE.INTER.ROT>
9

>  <SCORE.INTER.SOLV>
17.7591

>  <SCORE.INTER.VDW>
-22.7513

>  <SCORE.INTER.norm>
-0.657787

>  <SCORE.INTRA>
3.52246

>  <SCORE.INTRA.DIHEDRAL>
2.25334

>  <SCORE.INTRA.DIHEDRAL.0>
14.8538

>  <SCORE.INTRA.POLAR>
0

>  <SCORE.INTRA.POLAR.0>
0

>  <SCORE.INTRA.REPUL>
0.0132178

>  <SCORE.INTRA.REPUL.0>
0

>  <SCORE.INTRA.SOLV>
4.60124

>  <SCORE.INTRA.SOLV.lig_0>
-100.951

>  <SCORE.INTRA.VDW>
0.0290805

>  <SCORE.INTRA.VDW.0>
-5.71388

>  <SCORE.INTRA.norm>
0.0838681

>  <SCORE.RESTR>
0

>  <SCORE.RESTR.CAVITY>
0

>  <SCORE.RESTR.norm>
0

>  <SCORE.SYSTEM>
0

>  <SCORE.SYSTEM.CONST>
0

>  <SCORE.SYSTEM.DIHEDRAL>
0

>  <SCORE.SYSTEM.SOLV>
0

>  <SCORE.SYSTEM.norm>
0

>  <SCORE.heavy>
42

>  <SCORE.norm>
-0.573919

>  <RMSD>
4.550

$$$$
3c44_lig
 OpenBabel11021811463D
libRbt.so/2013.1/901 2013/11/27
 42 45  0  0  0  0  0  0  0  0999 V2000
   36.8636   34.3194  -15.8604 C   0  0  2  0  0  0  0  0  0  0  0  0
   36.7026   35.7375  -16.0177 O   0  0  0  0  0  0  0  0  0  0  0  0
   34.3063   38.1683  -18.3712 C   0  0  2  0  0  0  0  0  0  0  0  0
   33.3108   38.8732  -19.1934 N   0  0  0  0  0  0  0  0  0  0  0  0
   34.7402   38.1367  -13.7535 C   0  0  1  0  0  0  0  0  0  0  0  0
   37.1801   39.1402  -10.8583 C   0  0  1  0  0  0  0  0  0  0  0  0
   36.1605   33.8752  -14.5734 C   0  0  2  0  0  0  0  0  0  0  0  0
   34.7544   34.3043  -14.5698 N   0  0  0  0  0  0  0  0  0  0  0  0
   34.6124   36.7880  -18.9598 C   0  0  0  0  0  0  0  0  0  0  0  0
   36.2583   38.3198  -13.7222 C   0  0  2  0  0  0  0  0  0  0  0  0
   36.8533   37.3228  -12.8894 O   0  0  0  0  0  0  0  0  0  0  0  0
   36.8389   39.1302   -9.3646 C   0  0  2  0  0  0  0  0  0  0  0  0
   36.2928   40.4467   -9.0071 N   0  0  0  0  0  0  0  0  0  0  0  0
   36.8586   34.4404  -13.3340 C   0  0  1  0  0  0  0  0  0  0  0  0
   36.2674   33.8739  -12.1607 O   0  0  0  0  0  0  0  0  0  0  0  0
   35.7615   36.1795  -18.1491 C   0  0  2  0  0  0  0  0  0  0  0  0
   36.0439   34.8247  -18.6468 N   0  0  0  0  0  0  0  0  0  0  0  0
   36.3398   39.6686  -13.0103 C   0  0  2  0  0  0  0  0  0  0  0  0
   36.0214   39.5310  -11.6158 O   0  0  0  0  0  0  0  0  0  0  0  0
   38.0871   38.8635   -8.5132 C   0  0  1  0  0  0  0  0  0  0  0  0
   38.5128   37.5066   -8.6628 O   0  0  0  0  0  0  0  0  0  0  0  0
   38.3482   34.0941  -13.3740 C   0  0  2  0  0  0  0  0  0  0  0  0
   39.0159   34.7164  -12.2732 O   0  0  0  0  0  0  0  0  0  0  0  0
   35.4617   36.1025  -16.6469 C   0  0  2  0  0  0  0  0  0  0  0  0
   35.2226   40.4219  -13.7151 C   0  0  2  0  0  0  0  0  0  0  0  0
   34.2443   39.4385  -14.1165 O   0  0  0  0  0  0  0  0  0  0  0  0
   39.2369   39.7869   -8.9192 C   0  0  2  0  0  0  0  0  0  0  0  0
   38.8984   41.1304   -8.5635 O   0  0  0  0  0  0  0  0  0  0  0  0
   38.9534   34.5876  -14.6891 C   0  0  2  0  0  0  0  0  0  0  0  0
   38.2650   33.9932  -15.8072 O   0  0  0  0  0  0  0  0  0  0  0  0
   34.9193   37.3987  -16.0483 C   0  0  2  0  0  0  0  0  0  0  0  0
   34.4063   37.1367  -14.7319 O   0  0  0  0  0  0  0  0  0  0  0  0
   35.7916   41.1589  -14.9294 C   0  0  0  0  0  0  0  0  0  0  0  0
   36.6097   42.2407  -14.4784 O   0  0  0  0  0  0  0  0  0  0  0  0
   39.4571   39.6731  -10.4300 C   0  0  1  0  0  0  0  0  0  0  0  0
   38.2468   40.0722  -11.0972 O   0  0  0  0  0  0  0  0  0  0  0  0
   40.4281   34.1772  -14.7044 C   0  0  0  0  0  0  0  0  0  0  0  0
   41.0912   34.7227  -15.8975 O   0  0  0  0  0  0  0  0  0  0  0  0
   33.8153   37.9909  -16.9322 C   0  0  1  0  0  0  0  0  0  0  0  0
   33.3849   39.2464  -16.4017 O   0  0  0  0  0  0  0  0  0  0  0  0
   40.6094   40.5537  -10.9151 C   0  0  0  0  0  0  0  0  0  0  0  0
   40.7362   40.4245  -12.3734 N   0  0  0  0  0  0  0  0  0  0  0  0
  1  2  1  1  0  0  0
  1  7  1  0  0  0  0
  1 30  1  0  0  0  0
  3  4  1  6  0  0  0
  3  9  1  0  0  0  0
  3 39  1  0  0  0  0
  5 10  1  0  0  0  0
  5 26  1  0  0  0  0
  5 32  1  6  0  0  0
  6 12  1  0  0  0  0
  6 36  1  0  0  0  0
  6 19  1  6  0  0  0
  7  8  1  6  0  0  0
  7 14  1  0  0  0  0
  9 16  1  0  0  0  0
 10 11  1  1  0  0  0
 10 18  1  0  0  0  0
 12 13  1  1  0  0  0
 12 20  1  0  0  0  0
 14 15  1  1  0  0  0
 14 22  1  0  0  0  0
 16 17  1  6  0  0  0
 16 24  1  0  0  0  0
 18 19  1  1  0  0  0
 18 25  1  0  0  0  0
 20 21  1  6  0  0  0
 20 27  1  0  0  0  0
 22 23  1  1  0  0  0
 22 29  1  0  0  0  0
 24  2  1  1  0  0  0
 24 31  1  0  0  0  0
 25 26  1  0  0  0  0
 25 33  1  6  0  0  0
 27 28  1  6  0  0  0
 27 35  1  0  0  0  0
 29 30  1  0  0  0  0
 29 37  1  1  0  0  0
 31 32  1  1  0  0  0
 31 39  1  0  0  0  0
 33 34  1  0  0  0  0
 35 36  1  0  0  0  0
 35 41  1  6  0  0  0
 37 38  1  0  0  0  0
 39 40  1  1  0  0  0
 41 42  1  0  0  0  0
M  END
>  <CHROM.1>
-84.43652280,-55.03929413,174.74279468,84.79996493,-91.76620133,-70.27277279
-175.32309687,137.88563394,-178.33968994,36.82571268,37.59176826,-13.74404394
-2.11113046,-0.85027681,0.67444657

>  <Name>
3c44_lig

>  <RI>
0

>  <Rbt.Current_Directory>
/home/itssahil/PROJECTS/Mol_Feturizer/New_Systems/rnas/3c44

>  <Rbt.Executable>
rbdock ($Id: //depot/dev/client3/rdock/2013.1/src/exe/rbdock.cxx#4 $)

>  <Rbt.Library>
libRbt.so (2013.1, Build901 2013/11/27)

>  <Rbt.Parameter_File>
/export/apps/rDock/src/rDock_2013.1_src/data/scripts/dock_solv.prm

>  <Rbt.Receptor>
prm/pocket_docking_6.prm

>  <SCORE>
-18.7777

>  <SCORE.INTER>
-21.4174

>  <SCORE.INTER.CONST>
1

>  <SCORE.INTER.POLAR>
-3.80818

>  <SCORE.INTER.ROT>
9

>  <SCORE.INTER.SOLV>
14.413

>  <SCORE.INTER.VDW>
-15.9887

>  <SCORE.INTER.norm>
-0.509938

>  <SCORE.INTRA>
2.63972

>  <SCORE.INTRA.DIHEDRAL>
0.917516

>  <SCORE.INTRA.DIHEDRAL.0>
14.8538

>  <SCORE.INTRA.POLAR>
0

>  <SCORE.INTRA.POLAR.0>
0

>  <SCORE.INTRA.REPUL>
0

>  <SCORE.INTRA.REPUL.0>
0

>  <SCORE.INTRA.SOLV>
0.178427

>  <SCORE.INTRA.SOLV.lig_0>
-100.951

>  <SCORE.INTRA.VDW>
2.09174

>  <SCORE.INTRA.VDW.0>
-5.71388

>  <SCORE.INTRA.norm>
0.0628504

>  <SCORE.RESTR>
0

>  <SCORE.RESTR.CAVITY>
0

>  <SCORE.RESTR.norm>
0

>  <SCORE.SYSTEM>
0

>  <SCORE.SYSTEM.CONST>
0

>  <SCORE.SYSTEM.DIHEDRAL>
0

>  <SCORE.SYSTEM.SOLV>
0

>  <SCORE.SYSTEM.norm>
0

>  <SCORE.heavy>
42

>  <SCORE.norm>
-0.447088

>  <RMSD>
4.573

$$$$
3c44_lig
 OpenBabel11021811463D
libRbt.so/2013.1/901 2013/11/27
 42 45  0  0  0  0  0  0  0  0999 V2000
   35.7360   34.0746  -16.1641 C   0  0  2  0  0  0  0  0  0  0  0  0
   36.6858   35.0879  -15.7995 O   0  0  0  0  0  0  0  0  0  0  0  0
   38.1462   32.3980  -13.0029 C   0  0  2  0  0  0  0  0  0  0  0  0
   38.8196   31.5879  -11.9762 N   0  0  0  0  0  0  0  0  0  0  0  0
   37.2770   36.7621  -13.0113 C   0  0  1  0  0  0  0  0  0  0  0  0
   39.6446   40.1332  -13.3446 C   0  0  1  0  0  0  0  0  0  0  0  0
   35.2352   34.3461  -17.5866 C   0  0  2  0  0  0  0  0  0  0  0  0
   36.3603   34.4532  -18.5267 N   0  0  0  0  0  0  0  0  0  0  0  0
   39.1206   32.7641  -14.1262 C   0  0  0  0  0  0  0  0  0  0  0  0
   36.6293   38.0787  -12.5801 C   0  0  2  0  0  0  0  0  0  0  0  0
   35.9074   38.6488  -13.6735 O   0  0  0  0  0  0  0  0  0  0  0  0
   39.1840   41.4206  -12.6530 C   0  0  2  0  0  0  0  0  0  0  0  0
   38.1155   42.0224  -13.4625 N   0  0  0  0  0  0  0  0  0  0  0  0
   34.4074   35.6322  -17.6493 C   0  0  1  0  0  0  0  0  0  0  0  0
   33.8324   35.7592  -18.9534 O   0  0  0  0  0  0  0  0  0  0  0  0
   38.3201   33.4676  -15.2273 C   0  0  2  0  0  0  0  0  0  0  0  0
   39.2344   33.8901  -16.2990 N   0  0  0  0  0  0  0  0  0  0  0  0
   37.8843   38.9128  -12.3306 C   0  0  2  0  0  0  0  0  0  0  0  0
   38.5127   39.2750  -13.5711 O   0  0  0  0  0  0  0  0  0  0  0  0
   40.3369   42.4252  -12.5282 C   0  0  1  0  0  0  0  0  0  0  0  0
   41.2911   41.9727  -11.5639 O   0  0  0  0  0  0  0  0  0  0  0  0
   33.2935   35.5841  -16.6019 C   0  0  2  0  0  0  0  0  0  0  0  0
   32.5923   36.8304  -16.5888 O   0  0  0  0  0  0  0  0  0  0  0  0
   37.5513   34.6942  -14.7203 C   0  0  2  0  0  0  0  0  0  0  0  0
   38.7499   37.8990  -11.5990 C   0  0  2  0  0  0  0  0  0  0  0  0
   38.3652   36.5942  -12.0838 O   0  0  0  0  0  0  0  0  0  0  0  0
   41.0467   42.6167  -13.8695 C   0  0  2  0  0  0  0  0  0  0  0  0
   40.1557   43.2757  -14.7739 O   0  0  0  0  0  0  0  0  0  0  0  0
   33.8988   35.3191  -15.2226 C   0  0  2  0  0  0  0  0  0  0  0  0
   34.6376   34.0817  -15.2332 O   0  0  0  0  0  0  0  0  0  0  0  0
   36.7421   34.4459  -13.4490 C   0  0  2  0  0  0  0  0  0  0  0  0
   36.3080   35.7043  -12.9080 O   0  0  0  0  0  0  0  0  0  0  0  0
   38.5114   38.0179  -10.0922 C   0  0  0  0  0  0  0  0  0  0  0  0
   37.2598   37.4089   -9.7675 O   0  0  0  0  0  0  0  0  0  0  0  0
   41.4498   41.2460  -14.4196 C   0  0  1  0  0  0  0  0  0  0  0  0
   40.2582   40.4608  -14.6015 O   0  0  0  0  0  0  0  0  0  0  0  0
   32.7463   35.2319  -14.2188 C   0  0  0  0  0  0  0  0  0  0  0  0
   31.9249   34.0446  -14.4958 O   0  0  0  0  0  0  0  0  0  0  0  0
   37.5748   33.6878  -12.4084 C   0  0  1  0  0  0  0  0  0  0  0  0
   36.7724   33.3880  -11.2641 O   0  0  0  0  0  0  0  0  0  0  0  0
   42.1874   41.3522  -15.7549 C   0  0  0  0  0  0  0  0  0  0  0  0
   42.5848   40.0080  -16.1963 N   0  0  0  0  0  0  0  0  0  0  0  0
  1  2  1  1  0  0  0
  1  7  1  0  0  0  0
  1 30  1  0  0  0  0
  3  4  1  1  0  0  0
  3  9  1  0  0  0  0
  3 39  1  0  0  0  0
  5 10  1  0  0  0  0
  5 26  1  0  0  0  0
  5 32  1  1  0  0  0
  6 12  1  0  0  0  0
  6 36  1  0  0  0  0
  6 19  1  6  0  0  0
  7  8  1  6  0  0  0
  7 14  1  0  0  0  0
  9 16  1  0  0  0  0
 10 11  1  6  0  0  0
 10 18  1  0  0  0  0
 12 13  1  6  0  0  0
 12 20  1  0  0  0  0
 14 15  1  6  0  0  0
 14 22  1  0  0  0  0
 16 17  1  6  0  0  0
 16 24  1  0  0  0  0
 18 19  1  6  0  0  0
 18 25  1  0  0  0  0
 20 21  1  1  0  0  0
 20 27  1  0  0  0  0
 22 23  1  1  0  0  0
 22 29  1  0  0  0  0
 24  2  1  6  0  0  0
 24 31  1  0  0  0  0
 25 26  1  0  0  0  0
 25 33  1  1  0  0  0
 27 28  1  6  0  0  0
 27 35  1  0  0  0  0
 29 30  1  0  0  0  0
 29 37  1  1  0  0  0
 31 32  1  1  0  0  0
 31 39  1  0  0  0  0
 33 34  1  0  0  0  0
 35 36  1  0  0  0  0
 35 41  1  6  0  0  0
 37 38  1  0  0  0  0
 39 40  1  1  0  0  0
 41 42  1  0  0  0  0
M  END
>  <CHROM.1>
-159.38704901,172.34413163,-60.74749087,176.22377600,61.29827614,76.09741630
66.61532525,-38.40456745,177.95205003,37.47089812,37.03839032,-14.14128242
2.59080013,0.81837088,2.53827775

>  <Name>
3c44_lig

>  <RI>
0

>  <Rbt.Current_Directory>
/home/itssahil/PROJECTS/Mol_Feturizer/New_Systems/rnas/3c44

>  <Rbt.Executable>
rbdock ($Id: //depot/dev/client3/rdock/2013.1/src/exe/rbdock.cxx#4 $)

>  <Rbt.Library>
libRbt.so (2013.1, Build901 2013/11/27)

>  <Rbt.Parameter_File>
/export/apps/rDock/src/rDock_2013.1_src/data/scripts/dock_solv.prm

>  <Rbt.Receptor>
prm/pocket_docking_7.prm

>  <SCORE>
-13.4736

>  <SCORE.INTER>
-12.8352

>  <SCORE.INTER.CONST>
1

>  <SCORE.INTER.POLAR>
-1.79124

>  <SCORE.INTER.ROT>
9

>  <SCORE.INTER.SOLV>
15.7095

>  <SCORE.INTER.VDW>
-17.4225

>  <SCORE.INTER.norm>
-0.3056

>  <SCORE.INTRA>
-0.638395

>  <SCORE.INTRA.DIHEDRAL>
-8.99405

>  <SCORE.INTRA.DIHEDRAL.0>
14.8538

>  <SCORE.INTRA.POLAR>
0

>  <SCORE.INTRA.POLAR.0>
0

>  <SCORE.INTRA.REPUL>
0

>  <SCORE.INTRA.REPUL.0>
0

>  <SCORE.INTRA.SOLV>
-2.54022

>  <SCORE.INTRA.SOLV.lig_0>
-100.951

>  <SCORE.INTRA.VDW>
5.12874

>  <SCORE.INTRA.VDW.0>
-5.71388

>  <SCORE.INTRA.norm>
-0.0151999

>  <SCORE.RESTR>
0

>  <SCORE.RESTR.CAVITY>
0

>  <SCORE.RESTR.norm>
0

>  <SCORE.SYSTEM>
0

>  <SCORE.SYSTEM.CONST>
0

>  <SCORE.SYSTEM.DIHEDRAL>
0

>  <SCORE.SYSTEM.SOLV>
0

>  <SCORE.SYSTEM.norm>
0

>  <SCORE.heavy>
42

>  <SCORE.norm>
-0.3208

>  <RMSD>
4.589

$$$$
3c44_lig
 OpenBabel11021811463D
libRbt.so/2013.1/901 2013/11/27
 42 45  0  0  0  0  0  0  0  0999 V2000
   36.4178   36.4528  -14.1543 C   0  0  2  0  0  0  0  0  0  0  0  0
   36.2992   37.3613  -15.2599 O   0  0  0  0  0  0  0  0  0  0  0  0
   33.7220   37.3939  -18.5075 C   0  0  2  0  0  0  0  0  0  0  0  0
   32.6533   37.3599  -19.5177 N   0  0  0  0  0  0  0  0  0  0  0  0
   35.6489   40.2403  -14.9873 C   0  0  1  0  0  0  0  0  0  0  0  0
   39.1946   41.9481  -13.7372 C   0  0  1  0  0  0  0  0  0  0  0  0
   35.8261   37.1080  -12.9019 C   0  0  2  0  0  0  0  0  0  0  0  0
   34.4455   37.5506  -13.1446 N   0  0  0  0  0  0  0  0  0  0  0  0
   33.7626   36.0808  -17.7204 C   0  0  0  0  0  0  0  0  0  0  0  0
   36.2551   41.2800  -15.9310 C   0  0  2  0  0  0  0  0  0  0  0  0
   37.0711   40.6339  -16.9100 O   0  0  0  0  0  0  0  0  0  0  0  0
   39.7838   43.1444  -14.4918 C   0  0  2  0  0  0  0  0  0  0  0  0
   40.4025   42.6500  -15.7295 N   0  0  0  0  0  0  0  0  0  0  0  0
   36.6638   38.3078  -12.4527 C   0  0  1  0  0  0  0  0  0  0  0  0
   36.1675   38.7861  -11.1988 O   0  0  0  0  0  0  0  0  0  0  0  0
   34.9881   36.1253  -16.8016 C   0  0  2  0  0  0  0  0  0  0  0  0
   35.0268   34.9042  -15.9829 N   0  0  0  0  0  0  0  0  0  0  0  0
   37.1592   42.0223  -14.9489 C   0  0  2  0  0  0  0  0  0  0  0  0
   38.3022   41.2235  -14.6020 O   0  0  0  0  0  0  0  0  0  0  0  0
   40.8532   43.8561  -13.6529 C   0  0  1  0  0  0  0  0  0  0  0  0
   40.2492   44.5480  -12.5569 O   0  0  0  0  0  0  0  0  0  0  0  0
   38.1273   37.8902  -12.2974 C   0  0  2  0  0  0  0  0  0  0  0  0
   38.9235   39.0363  -11.9852 O   0  0  0  0  0  0  0  0  0  0  0  0
   34.9976   37.3452  -15.8719 C   0  0  2  0  0  0  0  0  0  0  0  0
   36.2326   42.1326  -13.7484 C   0  0  2  0  0  0  0  0  0  0  0  0
   35.3500   40.9906  -13.7956 O   0  0  0  0  0  0  0  0  0  0  0  0
   41.8735   42.8585  -13.1020 C   0  0  2  0  0  0  0  0  0  0  0  0
   42.6341   42.3267  -14.1904 O   0  0  0  0  0  0  0  0  0  0  0  0
   38.6208   37.2597  -13.6005 C   0  0  2  0  0  0  0  0  0  0  0  0
   37.8035   36.1233  -13.9437 O   0  0  0  0  0  0  0  0  0  0  0  0
   34.7208   38.6722  -16.5755 C   0  0  2  0  0  0  0  0  0  0  0  0
   34.4663   39.6882  -15.5917 O   0  0  0  0  0  0  0  0  0  0  0  0
   35.4436   43.4411  -13.8318 C   0  0  0  0  0  0  0  0  0  0  0  0
   36.3455   44.5136  -14.1133 O   0  0  0  0  0  0  0  0  0  0  0  0
   41.1293   41.7374  -12.3716 C   0  0  1  0  0  0  0  0  0  0  0  0
   40.2588   41.0824  -13.3110 O   0  0  0  0  0  0  0  0  0  0  0  0
   40.0694   36.8155  -13.3819 C   0  0  0  0  0  0  0  0  0  0  0  0
   40.6286   36.2847  -14.6335 O   0  0  0  0  0  0  0  0  0  0  0  0
   33.5225   38.5501  -17.5243 C   0  0  1  0  0  0  0  0  0  0  0  0
   33.3367   39.7749  -18.2373 O   0  0  0  0  0  0  0  0  0  0  0  0
   42.0837   40.7050  -11.7703 C   0  0  0  0  0  0  0  0  0  0  0  0
   41.3270   39.7985  -10.8956 N   0  0  0  0  0  0  0  0  0  0  0  0
  1  2  1  6  0  0  0
  1  7  1  0  0  0  0
  1 30  1  0  0  0  0
  3  4  1  6  0  0  0
  3  9  1  0  0  0  0
  3 39  1  0  0  0  0
  5 10  1  0  0  0  0
  5 26  1  0  0  0  0
  5 32  1  6  0  0  0
  6 12  1  0  0  0  0
  6 36  1  0  0  0  0
  6 19  1  6  0  0  0
  7  8  1  6  0  0  0
  7 14  1  0  0  0  0
  9 16  1  0  0  0  0
 10 11  1  6  0  0  0
 10 18  1  0  0  0  0
 12 13  1  6  0  0  0
 12 20  1  0  0  0  0
 14 15  1  1  0  0  0
 14 22  1  0  0  0  0
 16 17  1  1  0  0  0
 16 24  1  0  0  0  0
 18 19  1  1  0  0  0
 18 25  1  0  0  0  0
 20 21  1  1  0  0  0
 20 27  1  0  0  0  0
 22 23  1  6  0  0  0
 22 29  1  0  0  0  0
 24  2  1  6  0  0  0
 24 31  1  0  0  0  0
 25 26  1  0  0  0  0
 25 33  1  6  0  0  0
 27 28  1  6  0  0  0
 27 35  1  0  0  0  0
 29 30  1  0  0  0  0
 29 37  1  1  0  0  0
 31 32  1  1  0  0  0
 31 39  1  0  0  0  0
 33 34  1  0  0  0  0
 35 36  1  0  0  0  0
 35 41  1  6  0  0  0
 37 38  1  0  0  0  0
 39 40  1  6  0  0  0
 41 42  1  0  0  0  0
M  END
>  <CHROM.1>
-81.65462414,80.13182451,-65.30076205,176.71711956,-80.63920621,-48.14281798
-176.08799511,80.21869078,170.23582824,37.37504297,39.68910475,-14.51004656
-2.63138143,-0.60094878,-0.14607499

>  <Name>
3c44_lig

>  <RI>
0

>  <Rbt.Current_Directory>
/home/itssahil/PROJECTS/Mol_Feturizer/New_Systems/rnas/3c44

>  <Rbt.Executable>
rbdock ($Id: //depot/dev/client3/rdock/2013.1/src/exe/rbdock.cxx#4 $)

>  <Rbt.Library>
libRbt.so (2013.1, Build901 2013/11/27)

>  <Rbt.Parameter_File>
/export/apps/rDock/src/rDock_2013.1_src/data/scripts/dock_solv.prm

>  <Rbt.Receptor>
prm/pocket_docking_6.prm

>  <SCORE>
-11.0866

>  <SCORE.INTER>
-10.2076

>  <SCORE.INTER.CONST>
1

>  <SCORE.INTER.POLAR>
-1.6232

>  <SCORE.INTER.ROT>
9

>  <SCORE.INTER.SOLV>
16.7528

>  <SCORE.INTER.VDW>
-16.5787

>  <SCORE.INTER.norm>
-0.243039

>  <SCORE.INTRA>
-0.878935

>  <SCORE.INTRA.DIHEDRAL>
-5.73391

>  <SCORE.INTRA.DIHEDRAL.0>
14.8538

>  <SCORE.INTRA.POLAR>
0

>  <SCORE.INTRA.POLAR.0>
0

>  <SCORE.INTRA.REPUL>
0

>  <SCORE.INTRA.REPUL.0>
0

>  <SCORE.INTRA.SOLV>
3.33533

>  <SCORE.INTRA.SOLV.lig_0>
-100.951

>  <SCORE.INTRA.VDW>
0.320354

>  <SCORE.INTRA.VDW.0>
-5.71388

>  <SCORE.INTRA.norm>
-0.020927

>  <SCORE.RESTR>
0

>  <SCORE.RESTR.CAVITY>
0

>  <SCORE.RESTR.norm>
0

>  <SCORE.SYSTEM>
0

>  <SCORE.SYSTEM.CONST>
0

>  <SCORE.SYSTEM.DIHEDRAL>
0

>  <SCORE.SYSTEM.SOLV>
0

>  <SCORE.SYSTEM.norm>
0

>  <SCORE.heavy>
42

>  <SCORE.norm>
-0.263966

>  <RMSD>
4.595

$$$$
3c44_lig
 OpenBabel11021811463D
libRbt.so/2013.1/901 2013/11/27
 42 45  0  0  0  0  0  0  0  0999 V2000
   38.1099   36.5591  -11.7263 C   0  0  2  0  0  0  0  0  0  0  0  0
   37.3211   37.0046  -12.8403 O   0  0  0  0  0  0  0  0  0  0  0  0
   33.7185   35.6656  -14.3953 C   0  0  2  0  0  0  0  0  0  0  0  0
   32.3763   35.1740  -14.7428 N   0  0  0  0  0  0  0  0  0  0  0  0
   35.4155   40.0032  -13.5308 C   0  0  1  0  0  0  0  0  0  0  0  0
   38.4684   42.2909  -14.6874 C   0  0  1  0  0  0  0  0  0  0  0  0
   38.0327   37.6040  -10.6081 C   0  0  2  0  0  0  0  0  0  0  0  0
   36.6350   37.8892  -10.2532 N   0  0  0  0  0  0  0  0  0  0  0  0
   34.4205   34.6917  -13.4445 C   0  0  0  0  0  0  0  0  0  0  0  0
   36.7144   39.6666  -14.2646 C   0  0  2  0  0  0  0  0  0  0  0  0
   37.8284   39.8280  -13.3845 O   0  0  0  0  0  0  0  0  0  0  0  0
   38.9260   42.7935  -13.3142 C   0  0  2  0  0  0  0  0  0  0  0  0
   38.1151   43.9661  -12.9583 N   0  0  0  0  0  0  0  0  0  0  0  0
   38.7208   38.9087  -11.0170 C   0  0  1  0  0  0  0  0  0  0  0  0
   38.7628   39.7919   -9.8921 O   0  0  0  0  0  0  0  0  0  0  0  0
   35.8589   35.1835  -13.2513 C   0  0  2  0  0  0  0  0  0  0  0  0
   36.5485   34.3058  -12.2937 N   0  0  0  0  0  0  0  0  0  0  0  0
   36.7301   40.7974  -15.2911 C   0  0  2  0  0  0  0  0  0  0  0  0
   37.0503   42.0512  -14.6660 O   0  0  0  0  0  0  0  0  0  0  0  0
   40.4047   43.2022  -13.3386 C   0  0  1  0  0  0  0  0  0  0  0  0
   41.2400   42.0471  -13.4527 O   0  0  0  0  0  0  0  0  0  0  0  0
   40.1456   38.6176  -11.4918 C   0  0  2  0  0  0  0  0  0  0  0  0
   40.7462   39.8218  -11.9757 O   0  0  0  0  0  0  0  0  0  0  0  0
   35.9362   36.6285  -12.7429 C   0  0  2  0  0  0  0  0  0  0  0  0
   35.2717   40.8014  -15.7214 C   0  0  2  0  0  0  0  0  0  0  0  0
   34.5010   40.3436  -14.5892 O   0  0  0  0  0  0  0  0  0  0  0  0
   40.6970   44.1380  -14.5126 C   0  0  2  0  0  0  0  0  0  0  0  0
   40.0328   45.3846  -14.2864 O   0  0  0  0  0  0  0  0  0  0  0  0
   40.1096   37.5746  -12.6099 C   0  0  2  0  0  0  0  0  0  0  0  0
   39.4745   36.3677  -12.1437 O   0  0  0  0  0  0  0  0  0  0  0  0
   35.0591   37.6126  -13.5142 C   0  0  2  0  0  0  0  0  0  0  0  0
   34.9813   38.8503  -12.7885 O   0  0  0  0  0  0  0  0  0  0  0  0
   35.0917   39.8698  -16.9219 C   0  0  0  0  0  0  0  0  0  0  0  0
   35.8841   40.3510  -18.0099 O   0  0  0  0  0  0  0  0  0  0  0  0
   40.1915   43.4895  -15.8040 C   0  0  1  0  0  0  0  0  0  0  0  0
   38.7734   43.2805  -15.6830 O   0  0  0  0  0  0  0  0  0  0  0  0
   41.5556   37.2811  -13.0178 C   0  0  0  0  0  0  0  0  0  0  0  0
   42.0236   38.2906  -13.9785 O   0  0  0  0  0  0  0  0  0  0  0  0
   33.6522   37.0417  -13.7281 C   0  0  1  0  0  0  0  0  0  0  0  0
   32.8770   37.9382  -14.5271 O   0  0  0  0  0  0  0  0  0  0  0  0
   40.4661   44.3566  -17.0333 C   0  0  0  0  0  0  0  0  0  0  0  0
   40.0901   43.6129  -18.2437 N   0  0  0  0  0  0  0  0  0  0  0  0
  1  2  1  6  0  0  0
  1  7  1  0  0  0  0
  1 30  1  0  0  0  0
  3  4  1  1  0  0  0
  3  9  1  0  0  0  0
  3 39  1  0  0  0  0
  5 10  1  0  0  0  0
  5 26  1  0  0  0  0
  5 32  1  6  0  0  0
  6 12  1  0  0  0  0
  6 36  1  0  0  0  0
  6 19  1  1  0  0  0
  7  8  1  6  0  0  0
  7 14  1  0  0  0  0
  9 16  1  0  0  0  0
 10 11  1  1  0  0  0
 10 18  1  0  0  0  0
 12 13  1  6  0  0  0
 12 20  1  0  0  0  0
 14 15  1  1  0  0  0
 14 22  1  0  0  0  0
 16 17  1  1  0  0  0
 16 24  1  0  0  0  0
 18 19  1  1  0  0  0
 18 25  1  0  0  0  0
 20 21  1  6  0  0  0
 20 27  1  0  0  0  0
 22 23  1  6  0  0  0
 22 29  1  0  0  0  0
 24  2  1  6  0  0  0
 24 31  1  0  0  0  0
 25 26  1  0  0  0  0
 25 33  1  6  0  0  0
 27 28  1  1  0  0  0
 27 35  1  0  0  0  0
 29 30  1  0  0  0  0
 29 37  1  1  0  0  0
 31 32  1  1  0  0  0
 31 39  1  0  0  0  0
 33 34  1  0  0  0  0
 35 36  1  0  0  0  0
 35 41  1  6  0  0  0
 37 38  1  0  0  0  0
 39 40  1  6  0  0  0
 41 42  1  0  0  0  0
M  END
>  <CHROM.1>
-86.78054588,-44.52210451,-135.03853041,91.04463548,-82.51007276,-61.55580688
-83.45053428,122.91138594,173.88686136,37.61506466,39.57966718,-13.73935711
-2.22662946,-0.46335408,-0.57615473

>  <Name>
3c44_lig

>  <RI>
0

>  <Rbt.Current_Directory>
/home/itssahil/PROJECTS/Mol_Feturizer/New_Systems/rnas/3c44

>  <Rbt.Executable>
rbdock ($Id: //depot/dev/client3/rdock/2013.1/src/exe/rbdock.cxx#4 $)

>  <Rbt.Library>
libRbt.so (2013.1, Build901 2013/11/27)

>  <Rbt.Parameter_File>
/export/apps/rDock/src/rDock_2013.1_src/data/scripts/dock_solv.prm

>  <Rbt.Receptor>
prm/pocket_docking_5.prm

>  <SCORE>
-10.8532

>  <SCORE.INTER>
-18.1221

>  <SCORE.INTER.CONST>
1

>  <SCORE.INTER.POLAR>
-2.29279

>  <SCORE.INTER.ROT>
9

>  <SCORE.INTER.SOLV>
19.9358

>  <SCORE.INTER.VDW>
-20.684

>  <SCORE.INTER.norm>
-0.431479

>  <SCORE.INTRA>
7.26892

>  <SCORE.INTRA.DIHEDRAL>
10.5505

>  <SCORE.INTRA.DIHEDRAL.0>
14.8538

>  <SCORE.INTRA.POLAR>
0

>  <SCORE.INTRA.POLAR.0>
0

>  <SCORE.INTRA.REPUL>
0.0446521

>  <SCORE.INTRA.REPUL.0>
0

>  <SCORE.INTRA.SOLV>
1.26008

>  <SCORE.INTRA.SOLV.lig_0>
-100.951

>  <SCORE.INTRA.VDW>
1.14039

>  <SCORE.INTRA.VDW.0>
-5.71388

>  <SCORE.INTRA.norm>
0.17307

>  <SCORE.RESTR>
0

>  <SCORE.RESTR.CAVITY>
0

>  <SCORE.RESTR.norm>
0

>  <SCORE.SYSTEM>
0

>  <SCORE.SYSTEM.CONST>
0

>  <SCORE.SYSTEM.DIHEDRAL>
0

>  <SCORE.SYSTEM.SOLV>
0

>  <SCORE.SYSTEM.norm>
0

>  <SCORE.heavy>
42

>  <SCORE.norm>
-0.25841

>  <RMSD>
4.646

$$$$
3c44_lig
 OpenBabel11021811463D
libRbt.so/2013.1/901 2013/11/27
 42 45  0  0  0  0  0  0  0  0999 V2000
   34.8844   36.9156  -15.2673 C   0  0  2  0  0  0  0  0  0  0  0  0
   34.8877   36.2657  -13.9869 O   0  0  0  0  0  0  0  0  0  0  0  0
   36.6766   33.0032  -12.1579 C   0  0  2  0  0  0  0  0  0  0  0  0
   37.3154   31.7580  -11.7048 N   0  0  0  0  0  0  0  0  0  0  0  0
   38.1006   37.2065  -14.0696 C   0  0  1  0  0  0  0  0  0  0  0  0
   38.9283   40.9105  -12.1864 C   0  0  1  0  0  0  0  0  0  0  0  0
   33.8520   38.0478  -15.2516 C   0  0  2  0  0  0  0  0  0  0  0  0
   34.1012   38.9687  -14.1332 N   0  0  0  0  0  0  0  0  0  0  0  0
   35.3682   32.7015  -12.8944 C   0  0  0  0  0  0  0  0  0  0  0  0
   38.7870   37.2608  -12.7040 C   0  0  2  0  0  0  0  0  0  0  0  0
   37.8077   37.2336  -11.6639 O   0  0  0  0  0  0  0  0  0  0  0  0
   37.8395   41.9885  -12.1753 C   0  0  2  0  0  0  0  0  0  0  0  0
   37.2337   42.0463  -13.5128 N   0  0  0  0  0  0  0  0  0  0  0  0
   32.4269   37.5003  -15.1399 C   0  0  1  0  0  0  0  0  0  0  0  0
   31.4956   38.5763  -15.2886 O   0  0  0  0  0  0  0  0  0  0  0  0
   34.6843   34.0389  -13.1973 C   0  0  2  0  0  0  0  0  0  0  0  0
   33.4513   33.7928  -13.9602 N   0  0  0  0  0  0  0  0  0  0  0  0
   39.3907   38.6620  -12.7753 C   0  0  2  0  0  0  0  0  0  0  0  0
   38.3708   39.6656  -12.6430 O   0  0  0  0  0  0  0  0  0  0  0  0
   38.4266   43.3651  -11.8371 C   0  0  1  0  0  0  0  0  0  0  0  0
   38.8180   43.4169  -10.4627 O   0  0  0  0  0  0  0  0  0  0  0  0
   32.1837   36.4590  -16.2339 C   0  0  2  0  0  0  0  0  0  0  0  0
   30.8919   35.8711  -16.0590 O   0  0  0  0  0  0  0  0  0  0  0  0
   35.5746   35.0020  -13.9925 C   0  0  2  0  0  0  0  0  0  0  0  0
   39.9228   38.6623  -14.1997 C   0  0  2  0  0  0  0  0  0  0  0  0
   39.0696   37.7835  -14.9645 O   0  0  0  0  0  0  0  0  0  0  0  0
   39.6466   43.6712  -12.7075 C   0  0  2  0  0  0  0  0  0  0  0  0
   39.2177   43.8395  -14.0617 O   0  0  0  0  0  0  0  0  0  0  0  0
   33.2584   35.3736  -16.1556 C   0  0  2  0  0  0  0  0  0  0  0  0
   34.5677   35.9593  -16.2960 O   0  0  0  0  0  0  0  0  0  0  0  0
   36.9868   35.1582  -13.4323 C   0  0  2  0  0  0  0  0  0  0  0  0
   37.8087   35.8365  -14.3961 O   0  0  0  0  0  0  0  0  0  0  0  0
   41.3697   38.1643  -14.2036 C   0  0  0  0  0  0  0  0  0  0  0  0
   41.3896   36.7829  -13.8371 O   0  0  0  0  0  0  0  0  0  0  0  0
   40.6381   42.5096  -12.6011 C   0  0  1  0  0  0  0  0  0  0  0  0
   39.9890   41.3135  -13.0674 O   0  0  0  0  0  0  0  0  0  0  0  0
   33.0028   34.3841  -17.2954 C   0  0  0  0  0  0  0  0  0  0  0  0
   33.8187   33.1759  -17.1070 O   0  0  0  0  0  0  0  0  0  0  0  0
   37.5961   33.7927  -13.0930 C   0  0  1  0  0  0  0  0  0  0  0  0
   38.8796   33.9665  -12.4885 O   0  0  0  0  0  0  0  0  0  0  0  0
   41.9010   42.7487  -13.4295 C   0  0  0  0  0  0  0  0  0  0  0  0
   41.5373   42.8403  -14.8504 N   0  0  0  0  0  0  0  0  0  0  0  0
  1  2  1  1  0  0  0
  1  7  1  0  0  0  0
  1 30  1  0  0  0  0
  3  4  1  6  0  0  0
  3  9  1  0  0  0  0
  3 39  1  0  0  0  0
  5 10  1  0  0  0  0
  5 26  1  0  0  0  0
  5 32  1  6  0  0  0
  6 12  1  0  0  0  0
  6 36  1  0  0  0  0
  6 19  1  6  0  0  0
  7  8  1  1  0  0  0
  7 14  1  0  0  0  0
  9 16  1  0  0  0  0
 10 11  1  1  0  0  0
 10 18  1  0  0  0  0
 12 13  1  6  0  0  0
 12 20  1  0  0  0  0
 14 15  1  6  0  0  0
 14 22  1  0  0  0  0
 16 17  1  6  0  0  0
 16 24  1  0  0  0  0
 18 19  1  6  0  0  0
 18 25  1  0  0  0  0
 20 21  1  1  0  0  0
 20 27  1  0  0  0  0
 22 23  1  1  0  0  0
 22 29  1  0  0  0  0
 24  2  1  1  0  0  0
 24 31  1  0  0  0  0
 25 26  1  0  0  0  0
 25 33  1  1  0  0  0
 27 28  1  6  0  0  0
 27 35  1  0  0  0  0
 29 30  1  0  0  0  0
 29 37  1  6  0  0  0
 31 32  1  6  0  0  0
 31 39  1  0  0  0  0
 33 34  1  0  0  0  0
 35 36  1  0  0  0  0
 35 41  1  6  0  0  0
 37 38  1  0  0  0  0
 39 40  1  1  0  0  0
 41 42  1  0  0  0  0
M  END
>  <CHROM.1>
165.85127603,57.59884603,175.02323103,157.28904940,-136.16046021,67.25489620
-168.09157214,105.63039013,-62.80449281,36.95749968,37.77633022,-13.85967108
2.28522442,0.37159993,3.10217651

>  <Name>
3c44_lig

>  <RI>
224

>  <Rbt.Current_Directory>
/home/itssahil/PROJECTS/Mol_Feturizer/New_Systems/rnas/3c44

>  <Rbt.Executable>
rbdock ($Id: //depot/dev/client3/rdock/2013.1/src/exe/rbdock.cxx#4 $)

>  <Rbt.Library>
libRbt.so (2013.1, Build901 2013/11/27)

>  <Rbt.Parameter_File>
/export/apps/rDock/src/rDock_2013.1_src/data/scripts/dock_solv.prm

>  <Rbt.Receptor>
prm/pocket_docking_3.prm

>  <SCORE>
-3.86095

>  <SCORE.INTER>
-7.70331

>  <SCORE.INTER.CONST>
1

>  <SCORE.INTER.POLAR>
-1.00361

>  <SCORE.INTER.ROT>
9

>  <SCORE.INTER.SOLV>
15.5836

>  <SCORE.INTER.VDW>
-16.5847

>  <SCORE.INTER.norm>
-0.183412

>  <SCORE.INTRA>
3.84236

>  <SCORE.INTRA.DIHEDRAL>
1.60833

>  <SCORE.INTRA.DIHEDRAL.0>
14.8538

>  <SCORE.INTRA.POLAR>
0

>  <SCORE.INTRA.POLAR.0>
0

>  <SCORE.INTRA.REPUL>
0.00375455

>  <SCORE.INTRA.REPUL.0>
0

>  <SCORE.INTRA.SOLV>
1.65386

>  <SCORE.INTRA.SOLV.lig_0>
-100.951

>  <SCORE.INTRA.VDW>
2.19249

>  <SCORE.INTRA.VDW.0>
-5.71388

>  <SCORE.INTRA.norm>
0.0914847

>  <SCORE.RESTR>
0

>  <SCORE.RESTR.CAVITY>
0

>  <SCORE.RESTR.norm>
0

>  <SCORE.SYSTEM>
0

>  <SCORE.SYSTEM.CONST>
0

>  <SCORE.SYSTEM.DIHEDRAL>
0

>  <SCORE.SYSTEM.SOLV>
0

>  <SCORE.SYSTEM.norm>
0

>  <SCORE.heavy>
42

>  <SCORE.norm>
-0.0919275

>  <RMSD>
4.662

$$$$
3c44_lig
 OpenBabel11021811463D
libRbt.so/2013.1/901 2013/11/27
 42 45  0  0  0  0  0  0  0  0999 V2000
   37.9831   36.9271  -11.7598 C   0  0  2  0  0  0  0  0  0  0  0  0
   37.0296   37.4186  -12.7144 O   0  0  0  0  0  0  0  0  0  0  0  0
   33.9126   35.2452  -14.3727 C   0  0  2  0  0  0  0  0  0  0  0  0
   32.7388   34.4472  -14.7592 N   0  0  0  0  0  0  0  0  0  0  0  0
   35.3475   39.6782  -12.7435 C   0  0  1  0  0  0  0  0  0  0  0  0
   37.8796   43.0263  -13.1634 C   0  0  1  0  0  0  0  0  0  0  0  0
   37.9058   37.7809  -10.4897 C   0  0  2  0  0  0  0  0  0  0  0  0
   36.5316   37.8229   -9.9695 N   0  0  0  0  0  0  0  0  0  0  0  0
   34.7763   34.4813  -13.3649 C   0  0  0  0  0  0  0  0  0  0  0  0
   34.7790   41.0029  -13.2545 C   0  0  2  0  0  0  0  0  0  0  0  0
   34.8501   41.0469  -14.6809 O   0  0  0  0  0  0  0  0  0  0  0  0
   38.9622   43.1157  -14.2441 C   0  0  2  0  0  0  0  0  0  0  0  0
   39.6941   41.8418  -14.2705 N   0  0  0  0  0  0  0  0  0  0  0  0
   38.3855   39.2110  -10.7502 C   0  0  1  0  0  0  0  0  0  0  0  0
   38.4458   39.9211   -9.5095 O   0  0  0  0  0  0  0  0  0  0  0  0
   36.0507   35.2987  -13.1286 C   0  0  2  0  0  0  0  0  0  0  0  0
   36.8798   34.6256  -12.1174 N   0  0  0  0  0  0  0  0  0  0  0  0
   35.8159   41.9661  -12.6800 C   0  0  2  0  0  0  0  0  0  0  0  0
   37.0566   41.8703  -13.3987 O   0  0  0  0  0  0  0  0  0  0  0  0
   39.9513   44.2497  -13.9445 C   0  0  1  0  0  0  0  0  0  0  0  0
   39.3261   45.5213  -14.1370 O   0  0  0  0  0  0  0  0  0  0  0  0
   39.7741   39.1840  -11.3917 C   0  0  2  0  0  0  0  0  0  0  0  0
   40.1712   40.5145  -11.7337 O   0  0  0  0  0  0  0  0  0  0  0  0
   35.7668   36.7319  -12.6619 C   0  0  2  0  0  0  0  0  0  0  0  0
   35.9900   41.3861  -11.2852 C   0  0  2  0  0  0  0  0  0  0  0  0
   35.7307   39.9691  -11.3867 O   0  0  0  0  0  0  0  0  0  0  0  0
   40.4634   44.1666  -12.5056 C   0  0  2  0  0  0  0  0  0  0  0  0
   41.2784   42.9987  -12.3718 O   0  0  0  0  0  0  0  0  0  0  0  0
   39.7394   38.3170  -12.6512 C   0  0  2  0  0  0  0  0  0  0  0  0
   39.3066   36.9818  -12.3239 O   0  0  0  0  0  0  0  0  0  0  0  0
   34.7222   37.4685  -13.4978 C   0  0  2  0  0  0  0  0  0  0  0  0
   34.3256   38.6685  -12.8140 O   0  0  0  0  0  0  0  0  0  0  0  0
   35.0044   42.0582  -10.3269 C   0  0  0  0  0  0  0  0  0  0  0  0
   35.3264   43.4469  -10.2232 O   0  0  0  0  0  0  0  0  0  0  0  0
   39.2659   44.0948  -11.5544 C   0  0  1  0  0  0  0  0  0  0  0  0
   38.5019   42.9183  -11.8732 O   0  0  0  0  0  0  0  0  0  0  0  0
   41.1564   38.2810  -13.2292 C   0  0  0  0  0  0  0  0  0  0  0  0
   41.1903   37.4326  -14.4292 O   0  0  0  0  0  0  0  0  0  0  0  0
   33.4977   36.5811  -13.7512 C   0  0  1  0  0  0  0  0  0  0  0  0
   32.5737   37.2558  -14.6079 O   0  0  0  0  0  0  0  0  0  0  0  0
   39.6944   44.0305  -10.0879 C   0  0  0  0  0  0  0  0  0  0  0  0
   40.4010   42.7650   -9.8454 N   0  0  0  0  0  0  0  0  0  0  0  0
  1  2  1  6  0  0  0
  1  7  1  0  0  0  0
  1 30  1  0  0  0  0
  3  4  1  1  0  0  0
  3  9  1  0  0  0  0
  3 39  1  0  0  0  0
  5 10  1  0  0  0  0
  5 26  1  0  0  0  0
  5 32  1  1  0  0  0
  6 12  1  0  0  0  0
  6 36  1  0  0  0  0
  6 19  1  6  0  0  0
  7  8  1  6  0  0  0
  7 14  1  0  0  0  0
  9 16  1  0  0  0  0
 10 11  1  6  0  0  0
 10 18  1  0  0  0  0
 12 13  1  1  0  0  0
 12 20  1  0  0  0  0
 14 15  1  1  0  0  0
 14 22  1  0  0  0  0
 16 17  1  1  0  0  0
 16 24  1  0  0  0  0
 18 19  1  6  0  0  0
 18 25  1  0  0  0  0
 20 21  1  1  0  0  0
 20 27  1  0  0  0  0
 22 23  1  6  0  0  0
 22 29  1  0  0  0  0
 24  2  1  6  0  0  0
 24 31  1  0  0  0  0
 25 26  1  0  0  0  0
 25 33  1  1  0  0  0
 27 28  1  6  0  0  0
 27 35  1  0  0  0  0
 29 30  1  0  0  0  0
 29 37  1  1  0  0  0
 31 32  1  1  0  0  0
 31 39  1  0  0  0  0
 33 34  1  0  0  0  0
 35 36  1  0  0  0  0
 35 41  1  1  0  0  0
 37 38  1  0  0  0  0
 39 40  1  6  0  0  0
 41 42  1  0  0  0  0
M  END
>  <CHROM.1>
-94.11350642,128.15513174,-162.46535891,161.88345972,-66.80113478,-64.24049752
178.68466520,68.76921709,-65.83569268,37.35101614,39.83400158,-12.47674532
-2.13532231,-0.15457382,0.05848005

>  <Name>
3c44_lig

>  <RI>
0

>  <Rbt.Current_Directory>
/home/itssahil/PROJECTS/Mol_Feturizer/New_Systems/rnas/3c44

>  <Rbt.Executable>
rbdock ($Id: //depot/dev/client3/rdock/2013.1/src/exe/rbdock.cxx#4 $)

>  <Rbt.Library>
libRbt.so (2013.1, Build901 2013/11/27)

>  <Rbt.Parameter_File>
/export/apps/rDock/src/rDock_2013.1_src/data/scripts/dock_solv.prm

>  <Rbt.Receptor>
prm/pocket_docking_5.prm

>  <SCORE>
-23.6549

>  <SCORE.INTER>
-28.343

>  <SCORE.INTER.CONST>
1

>  <SCORE.INTER.POLAR>
-3.39649

>  <SCORE.INTER.ROT>
9

>  <SCORE.INTER.SOLV>
18.7193

>  <SCORE.INTER.VDW>
-23.4135

>  <SCORE.INTER.norm>
-0.674833

>  <SCORE.INTRA>
4.68813

>  <SCORE.INTRA.DIHEDRAL>
0.277238

>  <SCORE.INTRA.DIHEDRAL.0>
14.8538

>  <SCORE.INTRA.POLAR>
0

>  <SCORE.INTRA.POLAR.0>
0

>  <SCORE.INTRA.REPUL>
0.135059

>  <SCORE.INTRA.REPUL.0>
0

>  <SCORE.INTRA.SOLV>
7.80602

>  <SCORE.INTRA.SOLV.lig_0>
-100.951

>  <SCORE.INTRA.VDW>
-0.0287948

>  <SCORE.INTRA.VDW.0>
-5.71388

>  <SCORE.INTRA.norm>
0.111622

>  <SCORE.RESTR>
0

>  <SCORE.RESTR.CAVITY>
0

>  <SCORE.RESTR.norm>
0

>  <SCORE.SYSTEM>
0

>  <SCORE.SYSTEM.CONST>
0

>  <SCORE.SYSTEM.DIHEDRAL>
0

>  <SCORE.SYSTEM.SOLV>
0

>  <SCORE.SYSTEM.norm>
0

>  <SCORE.heavy>
42

>  <SCORE.norm>
-0.563211

>  <RMSD>
4.740

$$$$
3c44_lig
 OpenBabel11021811463D
libRbt.so/2013.1/901 2013/11/27
 42 45  0  0  0  0  0  0  0  0999 V2000
   36.8969   35.6653  -13.1849 C   0  0  2  0  0  0  0  0  0  0  0  0
   37.6520   36.7997  -13.6372 O   0  0  0  0  0  0  0  0  0  0  0  0
   38.2994   37.8030   -9.6668 C   0  0  2  0  0  0  0  0  0  0  0  0
   38.6111   38.3422   -8.3341 N   0  0  0  0  0  0  0  0  0  0  0  0
   36.4330   40.0662  -12.8467 C   0  0  1  0  0  0  0  0  0  0  0  0
   38.1925   42.7744  -14.1862 C   0  0  1  0  0  0  0  0  0  0  0  0
   37.1004   34.5052  -14.1650 C   0  0  2  0  0  0  0  0  0  0  0  0
   38.5304   34.2167  -14.3458 N   0  0  0  0  0  0  0  0  0  0  0  0
   39.5530   37.7793  -10.5461 C   0  0  0  0  0  0  0  0  0  0  0  0
   35.3878   41.1752  -12.7163 C   0  0  2  0  0  0  0  0  0  0  0  0
   34.5151   41.1591  -13.8475 O   0  0  0  0  0  0  0  0  0  0  0  0
   38.5404   44.1210  -13.5431 C   0  0  2  0  0  0  0  0  0  0  0  0
   37.7696   45.1704  -14.2240 N   0  0  0  0  0  0  0  0  0  0  0  0
   36.4763   34.8125  -15.5286 C   0  0  1  0  0  0  0  0  0  0  0  0
   36.5510   33.6465  -16.3545 O   0  0  0  0  0  0  0  0  0  0  0  0
   39.1922   37.0669  -11.8538 C   0  0  2  0  0  0  0  0  0  0  0  0
   40.3571   37.0785  -12.7516 N   0  0  0  0  0  0  0  0  0  0  0  0
   36.2975   42.3983  -12.8137 C   0  0  2  0  0  0  0  0  0  0  0  0
   36.7675   42.5803  -14.1594 O   0  0  0  0  0  0  0  0  0  0  0  0
   40.0359   44.4328  -13.6857 C   0  0  1  0  0  0  0  0  0  0  0  0
   40.8081   43.5691  -12.8473 O   0  0  0  0  0  0  0  0  0  0  0  0
   35.0125   35.2192  -15.3497 C   0  0  2  0  0  0  0  0  0  0  0  0
   34.4651   35.6110  -16.6114 O   0  0  0  0  0  0  0  0  0  0  0  0
   38.0023   37.7083  -12.5785 C   0  0  2  0  0  0  0  0  0  0  0  0
   37.4514   41.9567  -11.9273 C   0  0  2  0  0  0  0  0  0  0  0  0
   37.5180   40.5168  -12.0148 O   0  0  0  0  0  0  0  0  0  0  0  0
   40.4988   44.2556  -15.1328 C   0  0  2  0  0  0  0  0  0  0  0  0
   39.8911   45.2683  -15.9396 O   0  0  0  0  0  0  0  0  0  0  0  0
   34.9219   36.3856  -14.3645 C   0  0  2  0  0  0  0  0  0  0  0  0
   35.5025   36.0136  -13.0989 O   0  0  0  0  0  0  0  0  0  0  0  0
   36.7943   37.9783  -11.6837 C   0  0  2  0  0  0  0  0  0  0  0  0
   35.8681   38.8290  -12.3788 O   0  0  0  0  0  0  0  0  0  0  0  0
   37.1911   42.4087  -10.4887 C   0  0  0  0  0  0  0  0  0  0  0  0
   37.3754   43.8234  -10.4026 O   0  0  0  0  0  0  0  0  0  0  0  0
   40.0864   42.8642  -15.6205 C   0  0  1  0  0  0  0  0  0  0  0  0
   38.6534   42.7628  -15.5467 O   0  0  0  0  0  0  0  0  0  0  0  0
   33.4404   36.7245  -14.1812 C   0  0  0  0  0  0  0  0  0  0  0  0
   33.2850   38.1509  -13.8614 O   0  0  0  0  0  0  0  0  0  0  0  0
   37.2236   38.6368  -10.3672 C   0  0  1  0  0  0  0  0  0  0  0  0
   36.0916   38.7987   -9.5097 O   0  0  0  0  0  0  0  0  0  0  0  0
   40.5331   42.5990  -17.0588 C   0  0  0  0  0  0  0  0  0  0  0  0
   41.9984   42.4951  -17.0989 N   0  0  0  0  0  0  0  0  0  0  0  0
  1  2  1  6  0  0  0
  1  7  1  0  0  0  0
  1 30  1  0  0  0  0
  3  4  1  1  0  0  0
  3  9  1  0  0  0  0
  3 39  1  0  0  0  0
  5 10  1  0  0  0  0
  5 26  1  0  0  0  0
  5 32  1  1  0  0  0
  6 12  1  0  0  0  0
  6 36  1  0  0  0  0
  6 19  1  6  0  0  0
  7  8  1  6  0  0  0
  7 14  1  0  0  0  0
  9 16  1  0  0  0  0
 10 11  1  6  0  0  0
 10 18  1  0  0  0  0
 12 13  1  6  0  0  0
 12 20  1  0  0  0  0
 14 15  1  6  0  0  0
 14 22  1  0  0  0  0
 16 17  1  6  0  0  0
 16 24  1  0  0  0  0
 18 19  1  6  0  0  0
 18 25  1  0  0  0  0
 20 21  1  1  0  0  0
 20 27  1  0  0  0  0
 22 23  1  6  0  0  0
 22 29  1  0  0  0  0
 24  2  1  6  0  0  0
 24 31  1  0  0  0  0
 25 26  1  0  0  0  0
 25 33  1  1  0  0  0
 27 28  1  6  0  0  0
 27 35  1  0  0  0  0
 29 30  1  0  0  0  0
 29 37  1  1  0  0  0
 31 32  1  6  0  0  0
 31 39  1  0  0  0  0
 33 34  1  0  0  0  0
 35 36  1  0  0  0  0
 35 41  1  6  0  0  0
 37 38  1  0  0  0  0
 39 40  1  1  0  0  0
 41 42  1  0  0  0  0
M  END
>  <CHROM.1>
-155.11360312,-143.67092463,-68.10919340,-130.94038747,78.31642451,-72.79865287
-150.93249261,-55.54793012,68.50432963,37.48400578,39.63744622,-13.35926563
-2.77353108,1.18642309,1.13860679

>  <Name>
3c44_lig

>  <RI>
224

>  <Rbt.Current_Directory>
/home/itssahil/PROJECTS/Mol_Feturizer/New_Systems/rnas/3c44

>  <Rbt.Executable>
rbdock ($Id: //depot/dev/client3/rdock/2013.1/src/exe/rbdock.cxx#4 $)

>  <Rbt.Library>
libRbt.so (2013.1, Build901 2013/11/27)

>  <Rbt.Parameter_File>
/export/apps/rDock/src/rDock_2013.1_src/data/scripts/dock_solv.prm

>  <Rbt.Receptor>
prm/pocket_docking_3.prm

>  <SCORE>
8.51262

>  <SCORE.INTER>
-5.88761

>  <SCORE.INTER.CONST>
1

>  <SCORE.INTER.POLAR>
-0.948623

>  <SCORE.INTER.ROT>
9

>  <SCORE.INTER.SOLV>
18.632

>  <SCORE.INTER.VDW>
-16.5737

>  <SCORE.INTER.norm>
-0.140181

>  <SCORE.INTRA>
13.03

>  <SCORE.INTRA.DIHEDRAL>
4.24334

>  <SCORE.INTRA.DIHEDRAL.0>
14.8538

>  <SCORE.INTRA.POLAR>
0

>  <SCORE.INTRA.POLAR.0>
0

>  <SCORE.INTRA.REPUL>
0

>  <SCORE.INTRA.REPUL.0>
0

>  <SCORE.INTRA.SOLV>
-1.51977

>  <SCORE.INTRA.SOLV.lig_0>
-100.951

>  <SCORE.INTRA.VDW>
11.6682

>  <SCORE.INTRA.VDW.0>
-5.71388

>  <SCORE.INTRA.norm>
0.310238

>  <SCORE.RESTR>
1.37023

>  <SCORE.RESTR.CAVITY>
1.37023

>  <SCORE.RESTR.norm>
0.0326245

>  <SCORE.SYSTEM>
0

>  <SCORE.SYSTEM.CONST>
0

>  <SCORE.SYSTEM.DIHEDRAL>
0

>  <SCORE.SYSTEM.SOLV>
0

>  <SCORE.SYSTEM.norm>
0

>  <SCORE.heavy>
42

>  <SCORE.norm>
0.202681

>  <RMSD>
4.758

$$$$
3c44_lig
 OpenBabel11021811463D
libRbt.so/2013.1/901 2013/11/27
 42 45  0  0  0  0  0  0  0  0999 V2000
   34.3431   36.8113  -15.6609 C   0  0  2  0  0  0  0  0  0  0  0  0
   34.5589   36.2355  -14.3634 O   0  0  0  0  0  0  0  0  0  0  0  0
   37.4369   33.3367  -13.6538 C   0  0  2  0  0  0  0  0  0  0  0  0
   38.6012   32.4619  -13.4464 N   0  0  0  0  0  0  0  0  0  0  0  0
   36.8533   37.5099  -12.2860 C   0  0  1  0  0  0  0  0  0  0  0  0
   38.6975   41.2545  -12.9252 C   0  0  1  0  0  0  0  0  0  0  0  0
   33.3379   37.9612  -15.5377 C   0  0  2  0  0  0  0  0  0  0  0  0
   33.7814   38.9397  -14.5343 N   0  0  0  0  0  0  0  0  0  0  0  0
   37.4796   33.9705  -15.0472 C   0  0  0  0  0  0  0  0  0  0  0  0
   37.1534   38.4290  -11.1010 C   0  0  2  0  0  0  0  0  0  0  0  0
   36.0330   39.2783  -10.8459 O   0  0  0  0  0  0  0  0  0  0  0  0
   38.4553   42.3893  -11.9245 C   0  0  2  0  0  0  0  0  0  0  0  0
   37.0424   42.7843  -12.0077 N   0  0  0  0  0  0  0  0  0  0  0  0
   31.9481   37.4470  -15.1540 C   0  0  1  0  0  0  0  0  0  0  0  0
   31.0140   38.5296  -15.2063 O   0  0  0  0  0  0  0  0  0  0  0  0
   36.1688   34.7376  -15.2511 C   0  0  2  0  0  0  0  0  0  0  0  0
   36.1985   35.4126  -16.5575 N   0  0  0  0  0  0  0  0  0  0  0  0
   38.2790   39.2669  -11.7044 C   0  0  2  0  0  0  0  0  0  0  0  0
   37.7645   40.1875  -12.6805 O   0  0  0  0  0  0  0  0  0  0  0  0
   39.3305   43.6077  -12.2464 C   0  0  1  0  0  0  0  0  0  0  0  0
   40.7020   43.3287  -11.9530 O   0  0  0  0  0  0  0  0  0  0  0  0
   31.5137   36.3496  -16.1273 C   0  0  2  0  0  0  0  0  0  0  0  0
   30.2657   35.7963  -15.7015 O   0  0  0  0  0  0  0  0  0  0  0  0
   35.9090   35.7832  -14.1594 C   0  0  2  0  0  0  0  0  0  0  0  0
   39.0867   38.1842  -12.4025 C   0  0  2  0  0  0  0  0  0  0  0  0
   38.1565   37.1449  -12.7767 O   0  0  0  0  0  0  0  0  0  0  0  0
   39.2124   43.9950  -13.7214 C   0  0  2  0  0  0  0  0  0  0  0  0
   37.8915   44.4867  -13.9658 O   0  0  0  0  0  0  0  0  0  0  0  0
   32.5770   35.2510  -16.1680 C   0  0  2  0  0  0  0  0  0  0  0  0
   33.8482   35.8038  -16.5626 O   0  0  0  0  0  0  0  0  0  0  0  0
   36.0890   35.2612  -12.7354 C   0  0  2  0  0  0  0  0  0  0  0  0
   36.1095   36.3698  -11.8215 O   0  0  0  0  0  0  0  0  0  0  0  0
   40.1545   37.6482  -11.4465 C   0  0  0  0  0  0  0  0  0  0  0  0
   39.5785   37.4803  -10.1492 O   0  0  0  0  0  0  0  0  0  0  0  0
   39.4917   42.7613  -14.5839 C   0  0  1  0  0  0  0  0  0  0  0  0
   38.5195   41.7513  -14.2613 O   0  0  0  0  0  0  0  0  0  0  0  0
   32.1230   34.2030  -17.1873 C   0  0  0  0  0  0  0  0  0  0  0  0
   32.9303   32.9823  -17.0494 O   0  0  0  0  0  0  0  0  0  0  0  0
   37.3856   34.4530  -12.6076 C   0  0  1  0  0  0  0  0  0  0  0  0
   37.4897   33.9001  -11.2936 O   0  0  0  0  0  0  0  0  0  0  0  0
   39.4138   43.0708  -16.0794 C   0  0  0  0  0  0  0  0  0  0  0  0
   39.5760   41.8242  -16.8405 N   0  0  0  0  0  0  0  0  0  0  0  0
  1  2  1  1  0  0  0
  1  7  1  0  0  0  0
  1 30  1  0  0  0  0
  3  4  1  1  0  0  0
  3  9  1  0  0  0  0
  3 39  1  0  0  0  0
  5 10  1  0  0  0  0
  5 26  1  0  0  0  0
  5 32  1  1  0  0  0
  6 12  1  0  0  0  0
  6 36  1  0  0  0  0
  6 19  1  1  0  0  0
  7  8  1  1  0  0  0
  7 14  1  0  0  0  0
  9 16  1  0  0  0  0
 10 11  1  6  0  0  0
 10 18  1  0  0  0  0
 12 13  1  6  0  0  0
 12 20  1  0  0  0  0
 14 15  1  6  0  0  0
 14 22  1  0  0  0  0
 16 17  1  6  0  0  0
 16 24  1  0  0  0  0
 18 19  1  6  0  0  0
 18 25  1  0  0  0  0
 20 21  1  6  0  0  0
 20 27  1  0  0  0  0
 22 23  1  1  0  0  0
 22 29  1  0  0  0  0
 24  2  1  1  0  0  0
 24 31  1  0  0  0  0
 25 26  1  0  0  0  0
 25 33  1  1  0  0  0
 27 28  1  1  0  0  0
 27 35  1  0  0  0  0
 29 30  1  0  0  0  0
 29 37  1  6  0  0  0
 31 32  1  1  0  0  0
 31 39  1  0  0  0  0
 33 34  1  0  0  0  0
 35 36  1  0  0  0  0
 35 41  1  6  0  0  0
 37 38  1  0  0  0  0
 39 40  1  1  0  0  0
 41 42  1  0  0  0  0
M  END
>  <CHROM.1>
-145.00737199,-163.26476971,-87.84877396,160.93329602,-59.23460695,42.57411580
-166.89428813,-41.04199901,-175.13839512,36.46831659,38.05532557,-13.83851341
2.32675302,0.57886092,2.98650164

>  <Name>
3c44_lig

>  <RI>
224

>  <Rbt.Current_Directory>
/home/itssahil/PROJECTS/Mol_Feturizer/New_Systems/rnas/3c44

>  <Rbt.Executable>
rbdock ($Id: //depot/dev/client3/rdock/2013.1/src/exe/rbdock.cxx#4 $)

>  <Rbt.Library>
libRbt.so (2013.1, Build901 2013/11/27)

>  <Rbt.Parameter_File>
/export/apps/rDock/src/rDock_2013.1_src/data/scripts/dock_solv.prm

>  <Rbt.Receptor>
prm/pocket_docking_3.prm

>  <SCORE>
0.306757

>  <SCORE.INTER>
-7.67558

>  <SCORE.INTER.CONST>
1

>  <SCORE.INTER.POLAR>
-1.82825

>  <SCORE.INTER.ROT>
9

>  <SCORE.INTER.SOLV>
17.6572

>  <SCORE.INTER.VDW>
-14.5086

>  <SCORE.INTER.norm>
-0.182752

>  <SCORE.INTRA>
7.77087

>  <SCORE.INTRA.DIHEDRAL>
-0.51834

>  <SCORE.INTRA.DIHEDRAL.0>
14.8538

>  <SCORE.INTRA.POLAR>
0

>  <SCORE.INTRA.POLAR.0>
0

>  <SCORE.INTRA.REPUL>
0

>  <SCORE.INTRA.REPUL.0>
0

>  <SCORE.INTRA.SOLV>
-1.17924

>  <SCORE.INTRA.SOLV.lig_0>
-100.951

>  <SCORE.INTRA.VDW>
8.61966

>  <SCORE.INTRA.VDW.0>
-5.71388

>  <SCORE.INTRA.norm>
0.185021

>  <SCORE.RESTR>
0.211464

>  <SCORE.RESTR.CAVITY>
0.211464

>  <SCORE.RESTR.norm>
0.00503486

>  <SCORE.SYSTEM>
0

>  <SCORE.SYSTEM.CONST>
0

>  <SCORE.SYSTEM.DIHEDRAL>
0

>  <SCORE.SYSTEM.SOLV>
0

>  <SCORE.SYSTEM.norm>
0

>  <SCORE.heavy>
42

>  <SCORE.norm>
0.00730373

>  <RMSD>
4.860

$$$$
3c44_lig
 OpenBabel11021811463D
libRbt.so/2013.1/901 2013/11/27
 42 45  0  0  0  0  0  0  0  0999 V2000
   38.7859   36.6314  -12.6045 C   0  0  2  0  0  0  0  0  0  0  0  0
   38.0386   37.2562  -13.6595 O   0  0  0  0  0  0  0  0  0  0  0  0
   34.0224   36.7872  -14.5756 C   0  0  2  0  0  0  0  0  0  0  0  0
   32.5608   36.6708  -14.6951 N   0  0  0  0  0  0  0  0  0  0  0  0
   37.3921   40.2789  -14.7251 C   0  0  1  0  0  0  0  0  0  0  0  0
   40.0326   41.9732  -17.4054 C   0  0  1  0  0  0  0  0  0  0  0  0
   39.6806   37.6801  -11.9355 C   0  0  2  0  0  0  0  0  0  0  0  0
   38.8884   38.8326  -11.4826 N   0  0  0  0  0  0  0  0  0  0  0  0
   34.5463   35.8810  -13.4577 C   0  0  0  0  0  0  0  0  0  0  0  0
   36.7593   41.1053  -15.8456 C   0  0  2  0  0  0  0  0  0  0  0  0
   36.4058   40.2558  -16.9388 O   0  0  0  0  0  0  0  0  0  0  0  0
   40.6110   41.3924  -18.7000 C   0  0  2  0  0  0  0  0  0  0  0  0
   40.9467   39.9816  -18.4632 N   0  0  0  0  0  0  0  0  0  0  0  0
   40.7740   38.1689  -12.8888 C   0  0  1  0  0  0  0  0  0  0  0  0
   41.6745   39.0217  -12.1754 O   0  0  0  0  0  0  0  0  0  0  0  0
   36.0773   35.9335  -13.4936 C   0  0  2  0  0  0  0  0  0  0  0  0
   36.6178   35.1217  -12.3928 N   0  0  0  0  0  0  0  0  0  0  0  0
   37.9632   41.9535  -16.2506 C   0  0  2  0  0  0  0  0  0  0  0  0
   38.9289   41.1635  -16.9637 O   0  0  0  0  0  0  0  0  0  0  0  0
   41.8822   42.1402  -19.1229 C   0  0  1  0  0  0  0  0  0  0  0  0
   41.5583   43.4548  -19.5831 O   0  0  0  0  0  0  0  0  0  0  0  0
   41.5423   36.9730  -13.4543 C   0  0  2  0  0  0  0  0  0  0  0  0
   42.4882   37.4258  -14.4265 O   0  0  0  0  0  0  0  0  0  0  0  0
   36.6321   37.3586  -13.3764 C   0  0  2  0  0  0  0  0  0  0  0  0
   38.5165   42.3203  -14.8827 C   0  0  2  0  0  0  0  0  0  0  0  0
   38.1738   41.2385  -13.9897 O   0  0  0  0  0  0  0  0  0  0  0  0
   42.8654   42.2561  -17.9569 C   0  0  2  0  0  0  0  0  0  0  0  0
   43.3617   40.9526  -17.6396 O   0  0  0  0  0  0  0  0  0  0  0  0
   40.5620   35.9962  -14.1055 C   0  0  2  0  0  0  0  0  0  0  0  0
   39.5821   35.5594  -13.1430 O   0  0  0  0  0  0  0  0  0  0  0  0
   35.9703   38.3684  -14.3118 C   0  0  2  0  0  0  0  0  0  0  0  0
   36.3500   39.6982  -13.9217 O   0  0  0  0  0  0  0  0  0  0  0  0
   37.8918   43.6371  -14.4163 C   0  0  0  0  0  0  0  0  0  0  0  0
   38.4263   43.9804  -13.1359 O   0  0  0  0  0  0  0  0  0  0  0  0
   42.1395   42.8599  -16.7518 C   0  0  1  0  0  0  0  0  0  0  0  0
   41.0518   41.9894  -16.3932 O   0  0  0  0  0  0  0  0  0  0  0  0
   41.3684   34.7976  -14.6120 C   0  0  0  0  0  0  0  0  0  0  0  0
   40.4709   33.8099  -15.2285 O   0  0  0  0  0  0  0  0  0  0  0  0
   34.4438   38.2284  -14.2779 C   0  0  1  0  0  0  0  0  0  0  0  0
   33.8499   39.1195  -15.2247 O   0  0  0  0  0  0  0  0  0  0  0  0
   43.0632   43.0293  -15.5449 C   0  0  0  0  0  0  0  0  0  0  0  0
   42.3338   43.7168  -14.4702 N   0  0  0  0  0  0  0  0  0  0  0  0
  1  2  1  6  0  0  0
  1  7  1  0  0  0  0
  1 30  1  0  0  0  0
  3  4  1  1  0  0  0
  3  9  1  0  0  0  0
  3 39  1  0  0  0  0
  5 10  1  0  0  0  0
  5 26  1  0  0  0  0
  5 32  1  1  0  0  0
  6 12  1  0  0  0  0
  6 36  1  0  0  0  0
  6 19  1  1  0  0  0
  7  8  1  6  0  0  0
  7 14  1  0  0  0  0
  9 16  1  0  0  0  0
 10 11  1  6  0  0  0
 10 18  1  0  0  0  0
 12 13  1  1  0  0  0
 12 20  1  0  0  0  0
 14 15  1  1  0  0  0
 14 22  1  0  0  0  0
 16 17  1  1  0  0  0
 16 24  1  0  0  0  0
 18 19  1  6  0  0  0
 18 25  1  0  0  0  0
 20 21  1  1  0  0  0
 20 27  1  0  0  0  0
 22 23  1  6  0  0  0
 22 29  1  0  0  0  0
 24  2  1  6  0  0  0
 24 31  1  0  0  0  0
 25 26  1  0  0  0  0
 25 33  1  1  0  0  0
 27 28  1  1  0  0  0
 27 35  1  0  0  0  0
 29 30  1  0  0  0  0
 29 37  1  1  0  0  0
 31 32  1  1  0  0  0
 31 39  1  0  0  0  0
 33 34  1  0  0  0  0
 35 36  1  0  0  0  0
 35 41  1  1  0  0  0
 37 38  1  0  0  0  0
 39 40  1  6  0  0  0
 41 42  1  0  0  0  0
M  END
>  <CHROM.1>
-110.71680395,93.75774230,-149.91751893,177.09439349,-72.37541510,-179.47630540
178.96376701,100.60673470,175.16490162,38.95683167,39.41608085,-14.97298377
-2.21592313,0.10269319,-0.45497039

>  <Name>
3c44_lig

>  <RI>
224

>  <Rbt.Current_Directory>
/home/itssahil/PROJECTS/Mol_Feturizer/New_Systems/rnas/3c44

>  <Rbt.Executable>
rbdock ($Id: //depot/dev/client3/rdock/2013.1/src/exe/rbdock.cxx#4 $)

>  <Rbt.Library>
libRbt.so (2013.1, Build901 2013/11/27)

>  <Rbt.Parameter_File>
/export/apps/rDock/src/rDock_2013.1_src/data/scripts/dock_solv.prm

>  <Rbt.Receptor>
prm/pocket_docking_8.prm

>  <SCORE>
-6.3128

>  <SCORE.INTER>
-10.6385

>  <SCORE.INTER.CONST>
1

>  <SCORE.INTER.POLAR>
-0.89325

>  <SCORE.INTER.ROT>
9

>  <SCORE.INTER.SOLV>
12.8536

>  <SCORE.INTER.VDW>
-17.9994

>  <SCORE.INTER.norm>
-0.253299

>  <SCORE.INTRA>
4.32574

>  <SCORE.INTRA.DIHEDRAL>
6.55246

>  <SCORE.INTRA.DIHEDRAL.0>
14.8538

>  <SCORE.INTRA.POLAR>
0

>  <SCORE.INTRA.POLAR.0>
0

>  <SCORE.INTRA.REPUL>
0

>  <SCORE.INTRA.REPUL.0>
0

>  <SCORE.INTRA.SOLV>
-1.46595

>  <SCORE.INTRA.SOLV.lig_0>
-100.951

>  <SCORE.INTRA.VDW>
1.78249

>  <SCORE.INTRA.VDW.0>
-5.71388

>  <SCORE.INTRA.norm>
0.102994

>  <SCORE.RESTR>
0

>  <SCORE.RESTR.CAVITY>
0

>  <SCORE.RESTR.norm>
0

>  <SCORE.SYSTEM>
0

>  <SCORE.SYSTEM.CONST>
0

>  <SCORE.SYSTEM.DIHEDRAL>
0

>  <SCORE.SYSTEM.SOLV>
0

>  <SCORE.SYSTEM.norm>
0

>  <SCORE.heavy>
42

>  <SCORE.norm>
-0.150305

>  <RMSD>
4.860

$$$$
3c44_lig
 OpenBabel11021811463D
libRbt.so/2013.1/901 2013/11/27
 42 45  0  0  0  0  0  0  0  0999 V2000
   34.4440   35.7444  -13.8376 C   0  0  2  0  0  0  0  0  0  0  0  0
   35.1350   35.1386  -14.9409 O   0  0  0  0  0  0  0  0  0  0  0  0
   38.5525   32.8945  -14.2527 C   0  0  2  0  0  0  0  0  0  0  0  0
   39.8727   32.2810  -14.0415 N   0  0  0  0  0  0  0  0  0  0  0  0
   37.1514   36.7461  -12.6767 C   0  0  1  0  0  0  0  0  0  0  0  0
   38.3286   40.8421  -12.5997 C   0  0  1  0  0  0  0  0  0  0  0  0
   32.9337   35.6432  -14.0760 C   0  0  2  0  0  0  0  0  0  0  0  0
   32.5337   34.2494  -14.3174 N   0  0  0  0  0  0  0  0  0  0  0  0
   38.4922   33.5890  -15.6163 C   0  0  0  0  0  0  0  0  0  0  0  0
   37.3762   37.5476  -11.3937 C   0  0  2  0  0  0  0  0  0  0  0  0
   36.1732   38.2241  -11.0235 O   0  0  0  0  0  0  0  0  0  0  0  0
   37.7371   41.8035  -13.6359 C   0  0  2  0  0  0  0  0  0  0  0  0
   37.9155   41.2118  -14.9690 N   0  0  0  0  0  0  0  0  0  0  0  0
   32.4994   36.5012  -15.2670 C   0  0  1  0  0  0  0  0  0  0  0  0
   31.0711   36.5008  -15.3520 O   0  0  0  0  0  0  0  0  0  0  0  0
   37.0522   34.0658  -15.8336 C   0  0  2  0  0  0  0  0  0  0  0  0
   36.9680   34.7935  -17.1089 N   0  0  0  0  0  0  0  0  0  0  0  0
   38.3818   38.5765  -11.9063 C   0  0  2  0  0  0  0  0  0  0  0  0
   37.7393   39.5395  -12.7577 O   0  0  0  0  0  0  0  0  0  0  0  0
   38.4467   43.1633  -13.5981 C   0  0  1  0  0  0  0  0  0  0  0  0
   38.1054   43.8715  -12.4036 O   0  0  0  0  0  0  0  0  0  0  0  0
   33.0002   37.9350  -15.0838 C   0  0  2  0  0  0  0  0  0  0  0  0
   32.6881   38.7052  -16.2476 O   0  0  0  0  0  0  0  0  0  0  0  0
   36.5453   34.9773  -14.7090 C   0  0  2  0  0  0  0  0  0  0  0  0
   39.2890   37.6857  -12.7402 C   0  0  2  0  0  0  0  0  0  0  0  0
   38.4742   36.5963  -13.2247 O   0  0  0  0  0  0  0  0  0  0  0  0
   39.9658   42.9922  -13.6510 C   0  0  2  0  0  0  0  0  0  0  0  0
   40.3294   42.4867  -14.9388 O   0  0  0  0  0  0  0  0  0  0  0  0
   34.5136   37.9246  -14.8637 C   0  0  2  0  0  0  0  0  0  0  0  0
   34.8431   37.1221  -13.7127 O   0  0  0  0  0  0  0  0  0  0  0  0
   36.7981   34.4383  -13.3026 C   0  0  2  0  0  0  0  0  0  0  0  0
   36.5558   35.4801  -12.3431 O   0  0  0  0  0  0  0  0  0  0  0  0
   40.4365   37.1690  -11.8696 C   0  0  0  0  0  0  0  0  0  0  0  0
   41.5180   36.7659  -12.7127 O   0  0  0  0  0  0  0  0  0  0  0  0
   40.3954   42.0161  -12.5526 C   0  0  1  0  0  0  0  0  0  0  0  0
   39.7497   40.7526  -12.7892 O   0  0  0  0  0  0  0  0  0  0  0  0
   34.9600   39.3714  -14.6381 C   0  0  0  0  0  0  0  0  0  0  0  0
   34.1649   39.9829  -13.5634 O   0  0  0  0  0  0  0  0  0  0  0  0
   38.2351   33.9220  -13.1634 C   0  0  1  0  0  0  0  0  0  0  0  0
   38.4232   33.3418  -11.8707 O   0  0  0  0  0  0  0  0  0  0  0  0
   41.9099   41.8063  -12.5245 C   0  0  0  0  0  0  0  0  0  0  0  0
   42.2636   40.9907  -11.3543 N   0  0  0  0  0  0  0  0  0  0  0  0
  1  2  1  6  0  0  0
  1  7  1  0  0  0  0
  1 30  1  0  0  0  0
  3  4  1  1  0  0  0
  3  9  1  0  0  0  0
  3 39  1  0  0  0  0
  5 10  1  0  0  0  0
  5 26  1  0  0  0  0
  5 32  1  1  0  0  0
  6 12  1  0  0  0  0
  6 36  1  0  0  0  0
  6 19  1  6  0  0  0
  7  8  1  6  0  0  0
  7 14  1  0  0  0  0
  9 16  1  0  0  0  0
 10 11  1  6  0  0  0
 10 18  1  0  0  0  0
 12 13  1  6  0  0  0
 12 20  1  0  0  0  0
 14 15  1  1  0  0  0
 14 22  1  0  0  0  0
 16 17  1  6  0  0  0
 16 24  1  0  0  0  0
 18 19  1  6  0  0  0
 18 25  1  0  0  0  0
 20 21  1  1  0  0  0
 20 27  1  0  0  0  0
 22 23  1  6  0  0  0
 22 29  1  0  0  0  0
 24  2  1  6  0  0  0
 24 31  1  0  0  0  0
 25 26  1  0  0  0  0
 25 33  1  1  0  0  0
 27 28  1  6  0  0  0
 27 35  1  0  0  0  0
 29 30  1  0  0  0  0
 29 37  1  1  0  0  0
 31 32  1  1  0  0  0
 31 39  1  0  0  0  0
 33 34  1  0  0  0  0
 35 36  1  0  0  0  0
 35 41  1  6  0  0  0
 37 38  1  0  0  0  0
 39 40  1  1  0  0  0
 41 42  1  0  0  0  0
M  END
>  <CHROM.1>
-169.99393687,-155.03601034,173.30554855,145.07951642,168.30378601,-158.88776234
53.13466581,-46.38974627,173.33112514,37.17919598,37.77050426,-13.64344351
2.21357627,0.28657299,-3.09948149

>  <Name>
3c44_lig

>  <RI>
0

>  <Rbt.Current_Directory>
/home/itssahil/PROJECTS/Mol_Feturizer/New_Systems/rnas/3c44

>  <Rbt.Executable>
rbdock ($Id: //depot/dev/client3/rdock/2013.1/src/exe/rbdock.cxx#4 $)

>  <Rbt.Library>
libRbt.so (2013.1, Build901 2013/11/27)

>  <Rbt.Parameter_File>
/export/apps/rDock/src/rDock_2013.1_src/data/scripts/dock_solv.prm

>  <Rbt.Receptor>
prm/pocket_docking_4.prm

>  <SCORE>
-11.4732

>  <SCORE.INTER>
-15.7732

>  <SCORE.INTER.CONST>
1

>  <SCORE.INTER.POLAR>
-2.41919

>  <SCORE.INTER.ROT>
9

>  <SCORE.INTER.SOLV>
23.0938

>  <SCORE.INTER.VDW>
-19.7495

>  <SCORE.INTER.norm>
-0.375553

>  <SCORE.INTRA>
4.30001

>  <SCORE.INTRA.DIHEDRAL>
-3.66105

>  <SCORE.INTRA.DIHEDRAL.0>
14.8538

>  <SCORE.INTRA.POLAR>
0

>  <SCORE.INTRA.POLAR.0>
0

>  <SCORE.INTRA.REPUL>
0.371699

>  <SCORE.INTRA.REPUL.0>
0

>  <SCORE.INTRA.SOLV>
-3.18951

>  <SCORE.INTRA.SOLV.lig_0>
-100.951

>  <SCORE.INTRA.VDW>
5.8668

>  <SCORE.INTRA.VDW.0>
-5.71388

>  <SCORE.INTRA.norm>
0.102381

>  <SCORE.RESTR>
0

>  <SCORE.RESTR.CAVITY>
0

>  <SCORE.RESTR.norm>
0

>  <SCORE.SYSTEM>
0

>  <SCORE.SYSTEM.CONST>
0

>  <SCORE.SYSTEM.DIHEDRAL>
0

>  <SCORE.SYSTEM.SOLV>
0

>  <SCORE.SYSTEM.norm>
0

>  <SCORE.heavy>
42

>  <SCORE.norm>
-0.273172

>  <RMSD>
4.880

$$$$
3c44_lig
 OpenBabel11021811463D
libRbt.so/2013.1/901 2013/11/27
 42 45  0  0  0  0  0  0  0  0999 V2000
   34.1180   35.6659  -13.8700 C   0  0  2  0  0  0  0  0  0  0  0  0
   34.9062   35.0933  -14.9249 O   0  0  0  0  0  0  0  0  0  0  0  0
   38.5319   33.2175  -14.2001 C   0  0  2  0  0  0  0  0  0  0  0  0
   39.9052   32.7474  -13.9616 N   0  0  0  0  0  0  0  0  0  0  0  0
   36.7500   36.7578  -12.4161 C   0  0  1  0  0  0  0  0  0  0  0  0
   38.3560   40.6430  -11.9963 C   0  0  1  0  0  0  0  0  0  0  0  0
   32.6357   35.5778  -14.2480 C   0  0  2  0  0  0  0  0  0  0  0  0
   32.2583   34.1939  -14.5697 N   0  0  0  0  0  0  0  0  0  0  0  0
   38.4439   33.9756  -15.5278 C   0  0  0  0  0  0  0  0  0  0  0  0
   37.4402   37.1690  -11.1148 C   0  0  2  0  0  0  0  0  0  0  0  0
   36.4825   37.7148  -10.2056 O   0  0  0  0  0  0  0  0  0  0  0  0
   37.4661   41.8831  -12.1308 C   0  0  2  0  0  0  0  0  0  0  0  0
   36.5910   41.6988  -13.2967 N   0  0  0  0  0  0  0  0  0  0  0  0
   32.3122   36.4751  -15.4453 C   0  0  1  0  0  0  0  0  0  0  0  0
   30.8975   36.4825  -15.6599 O   0  0  0  0  0  0  0  0  0  0  0  0
   36.9678   34.2969  -15.7846 C   0  0  2  0  0  0  0  0  0  0  0  0
   36.8489   35.0802  -17.0236 N   0  0  0  0  0  0  0  0  0  0  0  0
   38.3225   38.3005  -11.6383 C   0  0  2  0  0  0  0  0  0  0  0  0
   37.5352   39.4628  -11.9453 O   0  0  0  0  0  0  0  0  0  0  0  0
   38.3080   43.1489  -12.3381 C   0  0  1  0  0  0  0  0  0  0  0  0
   39.0008   43.4903  -11.1346 O   0  0  0  0  0  0  0  0  0  0  0  0
   32.7951   37.9005  -15.1711 C   0  0  2  0  0  0  0  0  0  0  0  0
   32.5908   38.7088  -16.3330 O   0  0  0  0  0  0  0  0  0  0  0  0
   36.3157   35.0808  -14.6388 C   0  0  2  0  0  0  0  0  0  0  0  0
   38.8351   37.6783  -12.9276 C   0  0  2  0  0  0  0  0  0  0  0  0
   37.8130   36.7675  -13.3870 O   0  0  0  0  0  0  0  0  0  0  0  0
   39.3331   42.9504  -13.4558 C   0  0  2  0  0  0  0  0  0  0  0  0
   38.6408   42.8291  -14.7017 O   0  0  0  0  0  0  0  0  0  0  0  0
   34.2822   37.8776  -14.8147 C   0  0  2  0  0  0  0  0  0  0  0  0
   34.5050   37.0375  -13.6650 O   0  0  0  0  0  0  0  0  0  0  0  0
   36.5750   34.4964  -13.2518 C   0  0  2  0  0  0  0  0  0  0  0  0
   36.1768   35.4489  -12.2522 O   0  0  0  0  0  0  0  0  0  0  0  0
   40.1462   36.9394  -12.6512 C   0  0  0  0  0  0  0  0  0  0  0  0
   41.1333   37.8818  -12.2265 O   0  0  0  0  0  0  0  0  0  0  0  0
   40.1434   41.6835  -13.1689 C   0  0  1  0  0  0  0  0  0  0  0  0
   39.2393   40.5654  -13.1265 O   0  0  0  0  0  0  0  0  0  0  0  0
   34.7071   39.3148  -14.5028 C   0  0  0  0  0  0  0  0  0  0  0  0
   36.1730   39.4049  -14.4386 O   0  0  0  0  0  0  0  0  0  0  0  0
   38.0558   34.1401  -13.0751 C   0  0  1  0  0  0  0  0  0  0  0  0
   38.2600   33.5139  -11.8065 O   0  0  0  0  0  0  0  0  0  0  0  0
   41.2094   41.4245  -14.2342 C   0  0  0  0  0  0  0  0  0  0  0  0
   42.2211   42.4887  -14.1750 N   0  0  0  0  0  0  0  0  0  0  0  0
  1  2  1  6  0  0  0
  1  7  1  0  0  0  0
  1 30  1  0  0  0  0
  3  4  1  1  0  0  0
  3  9  1  0  0  0  0
  3 39  1  0  0  0  0
  5 10  1  0  0  0  0
  5 26  1  0  0  0  0
  5 32  1  1  0  0  0
  6 12  1  0  0  0  0
  6 36  1  0  0  0  0
  6 19  1  6  0  0  0
  7  8  1  6  0  0  0
  7 14  1  0  0  0  0
  9 16  1  0  0  0  0
 10 11  1  1  0  0  0
 10 18  1  0  0  0  0
 12 13  1  6  0  0  0
 12 20  1  0  0  0  0
 14 15  1  1  0  0  0
 14 22  1  0  0  0  0
 16 17  1  6  0  0  0
 16 24  1  0  0  0  0
 18 19  1  6  0  0  0
 18 25  1  0  0  0  0
 20 21  1  1  0  0  0
 20 27  1  0  0  0  0
 22 23  1  6  0  0  0
 22 29  1  0  0  0  0
 24  2  1  6  0  0  0
 24 31  1  0  0  0  0
 25 26  1  0  0  0  0
 25 33  1  1  0  0  0
 27 28  1  6  0  0  0
 27 35  1  0  0  0  0
 29 30  1  0  0  0  0
 29 37  1  1  0  0  0
 31 32  1  1  0  0  0
 31 39  1  0  0  0  0
 33 34  1  0  0  0  0
 35 36  1  0  0  0  0
 35 41  1  6  0  0  0
 37 38  1  0  0  0  0
 39 40  1  1  0  0  0
 41 42  1  0  0  0  0
M  END
>  <CHROM.1>
-177.66874081,-126.32514242,-172.18703626,160.42369845,173.57262676,-63.47429716
-167.78550196,-52.67496343,66.25008528,36.97567432,37.81355015,-13.59478849
2.20850914,0.29489291,-3.09392981

>  <Name>
3c44_lig

>  <RI>
224

>  <Rbt.Current_Directory>
/home/itssahil/PROJECTS/Mol_Feturizer/New_Systems/rnas/3c44

>  <Rbt.Executable>
rbdock ($Id: //depot/dev/client3/rdock/2013.1/src/exe/rbdock.cxx#4 $)

>  <Rbt.Library>
libRbt.so (2013.1, Build901 2013/11/27)

>  <Rbt.Parameter_File>
/export/apps/rDock/src/rDock_2013.1_src/data/scripts/dock_solv.prm

>  <Rbt.Receptor>
prm/pocket_docking_3.prm

>  <SCORE>
-4.74239

>  <SCORE.INTER>
-9.11417

>  <SCORE.INTER.CONST>
1

>  <SCORE.INTER.POLAR>
-1.00774

>  <SCORE.INTER.ROT>
9

>  <SCORE.INTER.SOLV>
18.3841

>  <SCORE.INTER.VDW>
-18.445

>  <SCORE.INTER.norm>
-0.217004

>  <SCORE.INTRA>
3.88683

>  <SCORE.INTRA.DIHEDRAL>
-4.46705

>  <SCORE.INTRA.DIHEDRAL.0>
14.8538

>  <SCORE.INTRA.POLAR>
0

>  <SCORE.INTRA.POLAR.0>
0

>  <SCORE.INTRA.REPUL>
0.1234

>  <SCORE.INTRA.REPUL.0>
0

>  <SCORE.INTRA.SOLV>
-0.910712

>  <SCORE.INTRA.SOLV.lig_0>
-100.951

>  <SCORE.INTRA.VDW>
5.95872

>  <SCORE.INTRA.VDW.0>
-5.71388

>  <SCORE.INTRA.norm>
0.0925437

>  <SCORE.RESTR>
0.48495

>  <SCORE.RESTR.CAVITY>
0.48495

>  <SCORE.RESTR.norm>
0.0115464

>  <SCORE.SYSTEM>
0

>  <SCORE.SYSTEM.CONST>
0

>  <SCORE.SYSTEM.DIHEDRAL>
0

>  <SCORE.SYSTEM.SOLV>
0

>  <SCORE.SYSTEM.norm>
0

>  <SCORE.heavy>
42

>  <SCORE.norm>
-0.112914

>  <RMSD>
4.919

$$$$
3c44_lig
 OpenBabel11021811463D
libRbt.so/2013.1/901 2013/11/27
 42 45  0  0  0  0  0  0  0  0999 V2000
   35.6082   33.5599  -17.1339 C   0  0  2  0  0  0  0  0  0  0  0  0
   36.5057   34.6596  -16.9169 O   0  0  0  0  0  0  0  0  0  0  0  0
   37.9524   32.5437  -13.6581 C   0  0  2  0  0  0  0  0  0  0  0  0
   38.6263   31.9354  -12.5006 N   0  0  0  0  0  0  0  0  0  0  0  0
   37.3254   36.7885  -14.1385 C   0  0  1  0  0  0  0  0  0  0  0  0
   38.7694   40.3226  -15.2256 C   0  0  1  0  0  0  0  0  0  0  0  0
   34.9836   33.6907  -18.5270 C   0  0  2  0  0  0  0  0  0  0  0  0
   36.0242   33.8038  -19.5592 N   0  0  0  0  0  0  0  0  0  0  0  0
   38.9079   32.6371  -14.8512 C   0  0  0  0  0  0  0  0  0  0  0  0
   36.7804   38.2063  -13.9600 C   0  0  2  0  0  0  0  0  0  0  0  0
   36.4151   38.7522  -15.2290 O   0  0  0  0  0  0  0  0  0  0  0  0
   39.6106   40.3590  -16.5057 C   0  0  2  0  0  0  0  0  0  0  0  0
   41.0110   40.0976  -16.1452 N   0  0  0  0  0  0  0  0  0  0  0  0
   34.0614   34.9094  -18.6115 C   0  0  1  0  0  0  0  0  0  0  0  0
   33.3824   34.9002  -19.8710 O   0  0  0  0  0  0  0  0  0  0  0  0
   38.1016   33.1307  -16.0571 C   0  0  2  0  0  0  0  0  0  0  0  0
   39.0004   33.2920  -17.2100 N   0  0  0  0  0  0  0  0  0  0  0  0
   38.0448   38.9076  -13.4679 C   0  0  2  0  0  0  0  0  0  0  0  0
   38.9863   39.0766  -14.5404 O   0  0  0  0  0  0  0  0  0  0  0  0
   39.5220   41.7305  -17.1877 C   0  0  1  0  0  0  0  0  0  0  0  0
   38.2245   41.9218  -17.7576 O   0  0  0  0  0  0  0  0  0  0  0  0
   33.0355   34.8637  -17.4775 C   0  0  2  0  0  0  0  0  0  0  0  0
   32.2478   36.0571  -17.4939 O   0  0  0  0  0  0  0  0  0  0  0  0
   37.3863   34.4622  -15.7969 C   0  0  2  0  0  0  0  0  0  0  0  0
   38.5720   37.8724  -12.4868 C   0  0  2  0  0  0  0  0  0  0  0  0
   38.1365   36.5820  -12.9671 O   0  0  0  0  0  0  0  0  0  0  0  0
   39.7921   42.8587  -16.1907 C   0  0  2  0  0  0  0  0  0  0  0  0
   41.1629   42.7997  -15.7863 O   0  0  0  0  0  0  0  0  0  0  0  0
   33.7603   34.7434  -16.1361 C   0  0  2  0  0  0  0  0  0  0  0  0
   34.5851   33.5615  -16.1209 O   0  0  0  0  0  0  0  0  0  0  0  0
   36.6034   34.5081  -14.4863 C   0  0  2  0  0  0  0  0  0  0  0  0
   36.2245   35.8654  -14.2057 O   0  0  0  0  0  0  0  0  0  0  0  0
   38.0099   38.1585  -11.0927 C   0  0  0  0  0  0  0  0  0  0  0  0
   36.5823   38.1808  -11.1598 O   0  0  0  0  0  0  0  0  0  0  0  0
   38.8698   42.6853  -14.9811 C   0  0  1  0  0  0  0  0  0  0  0  0
   39.1525   41.4130  -14.3724 O   0  0  0  0  0  0  0  0  0  0  0  0
   32.6958   34.6528  -15.0397 C   0  0  0  0  0  0  0  0  0  0  0  0
   33.3336   34.4265  -13.7348 O   0  0  0  0  0  0  0  0  0  0  0  0
   37.4386   33.9476  -13.3290 C   0  0  1  0  0  0  0  0  0  0  0  0
   36.6575   33.9170  -12.1323 O   0  0  0  0  0  0  0  0  0  0  0  0
   39.0635   43.7907  -13.9423 C   0  0  0  0  0  0  0  0  0  0  0  0
   38.6786   45.0809  -14.5313 N   0  0  0  0  0  0  0  0  0  0  0  0
  1  2  1  1  0  0  0
  1  7  1  0  0  0  0
  1 30  1  0  0  0  0
  3  4  1  1  0  0  0
  3  9  1  0  0  0  0
  3 39  1  0  0  0  0
  5 10  1  0  0  0  0
  5 26  1  0  0  0  0
  5 32  1  1  0  0  0
  6 12  1  0  0  0  0
  6 36  1  0  0  0  0
  6 19  1  1  0  0  0
  7  8  1  6  0  0  0
  7 14  1  0  0  0  0
  9 16  1  0  0  0  0
 10 11  1  6  0  0  0
 10 18  1  0  0  0  0
 12 13  1  1  0  0  0
 12 20  1  0  0  0  0
 14 15  1  6  0  0  0
 14 22  1  0  0  0  0
 16 17  1  6  0  0  0
 16 24  1  0  0  0  0
 18 19  1  6  0  0  0
 18 25  1  0  0  0  0
 20 21  1  1  0  0  0
 20 27  1  0  0  0  0
 22 23  1  1  0  0  0
 22 29  1  0  0  0  0
 24  2  1  6  0  0  0
 24 31  1  0  0  0  0
 25 26  1  0  0  0  0
 25 33  1  1  0  0  0
 27 28  1  1  0  0  0
 27 35  1  0  0  0  0
 29 30  1  0  0  0  0
 29 37  1  1  0  0  0
 31 32  1  1  0  0  0
 31 39  1  0  0  0  0
 33 34  1  0  0  0  0
 35 36  1  0  0  0  0
 35 41  1  1  0  0  0
 37 38  1  0  0  0  0
 39 40  1  1  0  0  0
 41 42  1  0  0  0  0
M  END
>  <CHROM.1>
-165.38362381,175.01255399,-169.86928211,89.46533874,55.01638983,56.16585982
175.46880131,-56.84329798,64.01858042,37.11006787,37.05731513,-15.28378585
2.39745518,0.94618125,2.54925106

>  <Name>
3c44_lig

>  <RI>
224

>  <Rbt.Current_Directory>
/home/itssahil/PROJECTS/Mol_Feturizer/New_Systems/rnas/3c44

>  <Rbt.Executable>
rbdock ($Id: //depot/dev/client3/rdock/2013.1/src/exe/rbdock.cxx#4 $)

>  <Rbt.Library>
libRbt.so (2013.1, Build901 2013/11/27)

>  <Rbt.Parameter_File>
/export/apps/rDock/src/rDock_2013.1_src/data/scripts/dock_solv.prm

>  <Rbt.Receptor>
prm/pocket_docking_8.prm

>  <SCORE>
-12.7983

>  <SCORE.INTER>
-11.1544

>  <SCORE.INTER.CONST>
1

>  <SCORE.INTER.POLAR>
-1.74136

>  <SCORE.INTER.ROT>
9

>  <SCORE.INTER.SOLV>
15.4157

>  <SCORE.INTER.VDW>
-16.3703

>  <SCORE.INTER.norm>
-0.265581

>  <SCORE.INTRA>
-1.64391

>  <SCORE.INTRA.DIHEDRAL>
-9.18498

>  <SCORE.INTRA.DIHEDRAL.0>
14.8538

>  <SCORE.INTRA.POLAR>
0

>  <SCORE.INTRA.POLAR.0>
0

>  <SCORE.INTRA.REPUL>
0

>  <SCORE.INTRA.REPUL.0>
0

>  <SCORE.INTRA.SOLV>
-2.63473

>  <SCORE.INTRA.SOLV.lig_0>
-100.951

>  <SCORE.INTRA.VDW>
4.26594

>  <SCORE.INTRA.VDW.0>
-5.71388

>  <SCORE.INTRA.norm>
-0.0391408

>  <SCORE.RESTR>
0

>  <SCORE.RESTR.CAVITY>
0

>  <SCORE.RESTR.norm>
0

>  <SCORE.SYSTEM>
0

>  <SCORE.SYSTEM.CONST>
0

>  <SCORE.SYSTEM.DIHEDRAL>
0

>  <SCORE.SYSTEM.SOLV>
0

>  <SCORE.SYSTEM.norm>
0

>  <SCORE.heavy>
42

>  <SCORE.norm>
-0.304722

>  <RMSD>
4.928

$$$$
3c44_lig
 OpenBabel11021811463D
libRbt.so/2013.1/901 2013/11/27
 42 45  0  0  0  0  0  0  0  0999 V2000
   37.8155   36.3741  -15.6476 C   0  0  2  0  0  0  0  0  0  0  0  0
   37.5793   36.1623  -14.2472 O   0  0  0  0  0  0  0  0  0  0  0  0
   38.2921   38.0377  -10.6190 C   0  0  2  0  0  0  0  0  0  0  0  0
   38.6341   38.8599   -9.4481 N   0  0  0  0  0  0  0  0  0  0  0  0
   36.2606   39.8670  -13.7644 C   0  0  1  0  0  0  0  0  0  0  0  0
   39.1383   42.7242  -14.3409 C   0  0  1  0  0  0  0  0  0  0  0  0
   36.7993   35.5603  -16.4557 C   0  0  2  0  0  0  0  0  0  0  0  0
   35.4251   35.8803  -16.0433 N   0  0  0  0  0  0  0  0  0  0  0  0
   39.5382   37.7569  -11.4637 C   0  0  0  0  0  0  0  0  0  0  0  0
   37.4828   39.8872  -14.6835 C   0  0  2  0  0  0  0  0  0  0  0  0
   38.6752   39.7209  -13.9139 O   0  0  0  0  0  0  0  0  0  0  0  0
   39.5564   43.6071  -13.1605 C   0  0  2  0  0  0  0  0  0  0  0  0
   38.5498   44.6650  -12.9962 N   0  0  0  0  0  0  0  0  0  0  0  0
   37.0332   34.0566  -16.2909 C   0  0  1  0  0  0  0  0  0  0  0  0
   36.1689   33.3449  -17.1819 O   0  0  0  0  0  0  0  0  0  0  0  0
   39.1402   36.7742  -12.5701 C   0  0  2  0  0  0  0  0  0  0  0  0
   40.2990   36.5272  -13.4413 N   0  0  0  0  0  0  0  0  0  0  0  0
   37.4113   41.3317  -15.1746 C   0  0  2  0  0  0  0  0  0  0  0  0
   37.7977   42.2451  -14.1347 O   0  0  0  0  0  0  0  0  0  0  0  0
   40.9228   44.2578  -13.4124 C   0  0  1  0  0  0  0  0  0  0  0  0
   41.9620   43.2775  -13.3480 O   0  0  0  0  0  0  0  0  0  0  0  0
   38.4900   33.7193  -16.6138 C   0  0  2  0  0  0  0  0  0  0  0  0
   38.7316   32.3342  -16.3529 O   0  0  0  0  0  0  0  0  0  0  0  0
   37.9734   37.2776  -13.4290 C   0  0  2  0  0  0  0  0  0  0  0  0
   35.9192   41.4616  -15.4370 C   0  0  2  0  0  0  0  0  0  0  0  0
   35.2539   40.5705  -14.5157 O   0  0  0  0  0  0  0  0  0  0  0  0
   40.9664   44.9308  -14.7852 C   0  0  2  0  0  0  0  0  0  0  0  0
   40.0826   46.0555  -14.7768 O   0  0  0  0  0  0  0  0  0  0  0  0
   39.4172   34.5755  -15.7499 C   0  0  2  0  0  0  0  0  0  0  0  0
   39.1586   35.9748  -15.9789 O   0  0  0  0  0  0  0  0  0  0  0  0
   36.7832   37.7995  -12.6266 C   0  0  2  0  0  0  0  0  0  0  0  0
   35.8888   38.5021  -13.5047 O   0  0  0  0  0  0  0  0  0  0  0  0
   35.6210   41.0756  -16.8874 C   0  0  0  0  0  0  0  0  0  0  0  0
   34.2522   40.6779  -16.9933 O   0  0  0  0  0  0  0  0  0  0  0  0
   40.5341   43.9189  -15.8497 C   0  0  1  0  0  0  0  0  0  0  0  0
   39.1926   43.4925  -15.5534 O   0  0  0  0  0  0  0  0  0  0  0  0
   40.8584   34.2389  -16.1412 C   0  0  0  0  0  0  0  0  0  0  0  0
   41.0962   34.5968  -17.5470 O   0  0  0  0  0  0  0  0  0  0  0  0
   37.2475   38.7288  -11.4989 C   0  0  1  0  0  0  0  0  0  0  0  0
   36.1285   39.1338  -10.7072 O   0  0  0  0  0  0  0  0  0  0  0  0
   40.5711   44.5103  -17.2594 C   0  0  0  0  0  0  0  0  0  0  0  0
   40.1284   43.4926  -18.2227 N   0  0  0  0  0  0  0  0  0  0  0  0
  1  2  1  1  0  0  0
  1  7  1  0  0  0  0
  1 30  1  0  0  0  0
  3  4  1  1  0  0  0
  3  9  1  0  0  0  0
  3 39  1  0  0  0  0
  5 10  1  0  0  0  0
  5 26  1  0  0  0  0
  5 32  1  6  0  0  0
  6 12  1  0  0  0  0
  6 36  1  0  0  0  0
  6 19  1  1  0  0  0
  7  8  1  1  0  0  0
  7 14  1  0  0  0  0
  9 16  1  0  0  0  0
 10 11  1  1  0  0  0
 10 18  1  0  0  0  0
 12 13  1  6  0  0  0
 12 20  1  0  0  0  0
 14 15  1  6  0  0  0
 14 22  1  0  0  0  0
 16 17  1  6  0  0  0
 16 24  1  0  0  0  0
 18 19  1  1  0  0  0
 18 25  1  0  0  0  0
 20 21  1  6  0  0  0
 20 27  1  0  0  0  0
 22 23  1  1  0  0  0
 22 29  1  0  0  0  0
 24  2  1  1  0  0  0
 24 31  1  0  0  0  0
 25 26  1  0  0  0  0
 25 33  1  6  0  0  0
 27 28  1  1  0  0  0
 27 35  1  0  0  0  0
 29 30  1  0  0  0  0
 29 37  1  6  0  0  0
 31 32  1  6  0  0  0
 31 39  1  0  0  0  0
 33 34  1  0  0  0  0
 35 36  1  0  0  0  0
 35 41  1  6  0  0  0
 37 38  1  0  0  0  0
 39 40  1  1  0  0  0
 41 42  1  0  0  0  0
M  END
>  <CHROM.1>
-151.70148102,72.46156847,-175.61819988,102.56417107,-114.16125409,156.93477183
62.74754401,-82.71500820,-179.24128070,38.29099102,39.22799280,-14.61328182
-2.09494244,1.26812322,0.60894269

>  <Name>
3c44_lig

>  <RI>
0

>  <Rbt.Current_Directory>
/home/itssahil/PROJECTS/Mol_Feturizer/New_Systems/rnas/3c44

>  <Rbt.Executable>
rbdock ($Id: //depot/dev/client3/rdock/2013.1/src/exe/rbdock.cxx#4 $)

>  <Rbt.Library>
libRbt.so (2013.1, Build901 2013/11/27)

>  <Rbt.Parameter_File>
/export/apps/rDock/src/rDock_2013.1_src/data/scripts/dock_solv.prm

>  <Rbt.Receptor>
prm/pocket_docking_4.prm

>  <SCORE>
-3.47711

>  <SCORE.INTER>
-9.95989

>  <SCORE.INTER.CONST>
1

>  <SCORE.INTER.POLAR>
-1.06908

>  <SCORE.INTER.ROT>
9

>  <SCORE.INTER.SOLV>
13.3342

>  <SCORE.INTER.VDW>
-17.1211

>  <SCORE.INTER.norm>
-0.23714

>  <SCORE.INTRA>
6.44485

>  <SCORE.INTRA.DIHEDRAL>
5.93806

>  <SCORE.INTRA.DIHEDRAL.0>
14.8538

>  <SCORE.INTRA.POLAR>
0

>  <SCORE.INTRA.POLAR.0>
0

>  <SCORE.INTRA.REPUL>
0

>  <SCORE.INTRA.REPUL.0>
0

>  <SCORE.INTRA.SOLV>
-0.800774

>  <SCORE.INTRA.SOLV.lig_0>
-100.951

>  <SCORE.INTRA.VDW>
3.87621

>  <SCORE.INTRA.VDW.0>
-5.71388

>  <SCORE.INTRA.norm>
0.153449

>  <SCORE.RESTR>
0.0379347

>  <SCORE.RESTR.CAVITY>
0.0379347

>  <SCORE.RESTR.norm>
0.000903208

>  <SCORE.SYSTEM>
0

>  <SCORE.SYSTEM.CONST>
0

>  <SCORE.SYSTEM.DIHEDRAL>
0

>  <SCORE.SYSTEM.SOLV>
0

>  <SCORE.SYSTEM.norm>
0

>  <SCORE.heavy>
42

>  <SCORE.norm>
-0.0827882

>  <RMSD>
4.936

$$$$
3c44_lig
 OpenBabel11021811463D
libRbt.so/2013.1/901 2013/11/27
 42 45  0  0  0  0  0  0  0  0999 V2000
   37.3489   35.7266  -17.5403 C   0  0  2  0  0  0  0  0  0  0  0  0
   36.2507   36.4645  -18.0982 O   0  0  0  0  0  0  0  0  0  0  0  0
   32.7382   37.6930  -16.2699 C   0  0  2  0  0  0  0  0  0  0  0  0
   31.4374   37.9213  -15.6222 N   0  0  0  0  0  0  0  0  0  0  0  0
   36.5006   36.5584  -14.0503 C   0  0  1  0  0  0  0  0  0  0  0  0
   38.2161   37.7853  -10.4391 C   0  0  1  0  0  0  0  0  0  0  0  0
   38.6167   36.0297  -18.3458 C   0  0  2  0  0  0  0  0  0  0  0  0
   38.8626   37.4776  -18.4104 N   0  0  0  0  0  0  0  0  0  0  0  0
   32.5574   36.9505  -17.5970 C   0  0  0  0  0  0  0  0  0  0  0  0
   37.2198   35.5064  -13.2046 C   0  0  2  0  0  0  0  0  0  0  0  0
   36.2887   34.8592  -12.3352 O   0  0  0  0  0  0  0  0  0  0  0  0
   37.3772   38.3660   -9.2959 C   0  0  2  0  0  0  0  0  0  0  0  0
   36.3406   39.2302   -9.8771 N   0  0  0  0  0  0  0  0  0  0  0  0
   38.5176   35.4757  -19.7693 C   0  0  1  0  0  0  0  0  0  0  0  0
   39.7768   35.6416  -20.4282 O   0  0  0  0  0  0  0  0  0  0  0  0
   33.9246   36.8863  -18.2858 C   0  0  2  0  0  0  0  0  0  0  0  0
   33.8031   36.1250  -19.5382 N   0  0  0  0  0  0  0  0  0  0  0  0
   38.1196   36.4174  -12.3719 C   0  0  2  0  0  0  0  0  0  0  0  0
   37.3544   37.1292  -11.3856 O   0  0  0  0  0  0  0  0  0  0  0  0
   38.2423   39.2015   -8.3432 C   0  0  1  0  0  0  0  0  0  0  0  0
   39.1113   38.3551   -7.5861 O   0  0  0  0  0  0  0  0  0  0  0  0
   38.1562   33.9899  -19.7241 C   0  0  2  0  0  0  0  0  0  0  0  0
   37.9569   33.5033  -21.0539 O   0  0  0  0  0  0  0  0  0  0  0  0
   35.0063   36.2361  -17.4141 C   0  0  2  0  0  0  0  0  0  0  0  0
   38.5981   37.3868  -13.4412 C   0  0  2  0  0  0  0  0  0  0  0  0
   37.5487   37.4696  -14.4297 O   0  0  0  0  0  0  0  0  0  0  0  0
   39.0912   40.2126   -9.1156 C   0  0  2  0  0  0  0  0  0  0  0  0
   38.2274   41.1948   -9.6944 O   0  0  0  0  0  0  0  0  0  0  0  0
   36.8766   33.7989  -18.9085 C   0  0  2  0  0  0  0  0  0  0  0  0
   37.0544   34.3176  -17.5756 O   0  0  0  0  0  0  0  0  0  0  0  0
   35.0724   36.7786  -15.9879 C   0  0  2  0  0  0  0  0  0  0  0  0
   35.9003   35.9174  -15.1893 O   0  0  0  0  0  0  0  0  0  0  0  0
   39.8961   36.8633  -14.0599 C   0  0  0  0  0  0  0  0  0  0  0  0
   40.9103   36.8225  -13.0536 O   0  0  0  0  0  0  0  0  0  0  0  0
   39.8713   39.4762  -10.2079 C   0  0  1  0  0  0  0  0  0  0  0  0
   38.9289   38.8468  -11.0939 O   0  0  0  0  0  0  0  0  0  0  0  0
   36.5826   32.2976  -18.8508 C   0  0  0  0  0  0  0  0  0  0  0  0
   35.2492   32.0664  -18.2767 O   0  0  0  0  0  0  0  0  0  0  0  0
   33.6713   36.8758  -15.3728 C   0  0  1  0  0  0  0  0  0  0  0  0
   33.7474   37.4679  -14.0741 O   0  0  0  0  0  0  0  0  0  0  0  0
   40.7652   40.4180  -11.0157 C   0  0  0  0  0  0  0  0  0  0  0  0
   41.4618   39.6494  -12.0567 N   0  0  0  0  0  0  0  0  0  0  0  0
  1  2  1  6  0  0  0
  1  7  1  0  0  0  0
  1 30  1  0  0  0  0
  3  4  1  1  0  0  0
  3  9  1  0  0  0  0
  3 39  1  0  0  0  0
  5 10  1  0  0  0  0
  5 26  1  0  0  0  0
  5 32  1  6  0  0  0
  6 12  1  0  0  0  0
  6 36  1  0  0  0  0
  6 19  1  6  0  0  0
  7  8  1  6  0  0  0
  7 14  1  0  0  0  0
  9 16  1  0  0  0  0
 10 11  1  1  0  0  0
 10 18  1  0  0  0  0
 12 13  1  6  0  0  0
 12 20  1  0  0  0  0
 14 15  1  1  0  0  0
 14 22  1  0  0  0  0
 16 17  1  6  0  0  0
 16 24  1  0  0  0  0
 18 19  1  1  0  0  0
 18 25  1  0  0  0  0
 20 21  1  6  0  0  0
 20 27  1  0  0  0  0
 22 23  1  6  0  0  0
 22 29  1  0  0  0  0
 24  2  1  6  0  0  0
 24 31  1  0  0  0  0
 25 26  1  0  0  0  0
 25 33  1  6  0  0  0
 27 28  1  6  0  0  0
 27 35  1  0  0  0  0
 29 30  1  0  0  0  0
 29 37  1  1  0  0  0
 31 32  1  1  0  0  0
 31 39  1  0  0  0  0
 33 34  1  0  0  0  0
 35 36  1  0  0  0  0
 35 41  1  6  0  0  0
 37 38  1  0  0  0  0
 39 40  1  1  0  0  0
 41 42  1  0  0  0  0
M  END
>  <CHROM.1>
179.48098658,173.66013464,-172.08796718,168.92479427,-169.97380419,-63.39968685
-170.49320431,155.05123201,-178.99131277,37.14219176,36.82279761,-14.74366975
-1.82533903,-0.04382453,1.13059773

>  <Name>
3c44_lig

>  <RI>
0

>  <Rbt.Current_Directory>
/home/itssahil/PROJECTS/Mol_Feturizer/New_Systems/rnas/3c44

>  <Rbt.Executable>
rbdock ($Id: //depot/dev/client3/rdock/2013.1/src/exe/rbdock.cxx#4 $)

>  <Rbt.Library>
libRbt.so (2013.1, Build901 2013/11/27)

>  <Rbt.Parameter_File>
/export/apps/rDock/src/rDock_2013.1_src/data/scripts/dock_solv.prm

>  <Rbt.Receptor>
prm/pocket_docking_7.prm

>  <SCORE>
-9.60991

>  <SCORE.INTER>
-4.62362

>  <SCORE.INTER.CONST>
1

>  <SCORE.INTER.POLAR>
-0.939092

>  <SCORE.INTER.ROT>
9

>  <SCORE.INTER.SOLV>
18.5597

>  <SCORE.INTER.VDW>
-15.7387

>  <SCORE.INTER.norm>
-0.110086

>  <SCORE.INTRA>
-4.98629

>  <SCORE.INTRA.DIHEDRAL>
-9.81714

>  <SCORE.INTRA.DIHEDRAL.0>
14.8538

>  <SCORE.INTRA.POLAR>
0

>  <SCORE.INTRA.POLAR.0>
0

>  <SCORE.INTRA.REPUL>
0

>  <SCORE.INTRA.REPUL.0>
0

>  <SCORE.INTRA.SOLV>
-2.88314

>  <SCORE.INTRA.SOLV.lig_0>
-100.951

>  <SCORE.INTRA.VDW>
1.36385

>  <SCORE.INTRA.VDW.0>
-5.71388

>  <SCORE.INTRA.norm>
-0.118721

>  <SCORE.RESTR>
0

>  <SCORE.RESTR.CAVITY>
0

>  <SCORE.RESTR.norm>
0

>  <SCORE.SYSTEM>
0

>  <SCORE.SYSTEM.CONST>
0

>  <SCORE.SYSTEM.DIHEDRAL>
0

>  <SCORE.SYSTEM.SOLV>
0

>  <SCORE.SYSTEM.norm>
0

>  <SCORE.heavy>
42

>  <SCORE.norm>
-0.228807

>  <RMSD>
5.003

$$$$
3c44_lig
 OpenBabel11021811463D
libRbt.so/2013.1/901 2013/11/27
 42 45  0  0  0  0  0  0  0  0999 V2000
   38.6795   36.7296  -13.0421 C   0  0  2  0  0  0  0  0  0  0  0  0
   37.9472   37.7780  -13.6952 O   0  0  0  0  0  0  0  0  0  0  0  0
   34.4015   37.9644  -15.8359 C   0  0  2  0  0  0  0  0  0  0  0  0
   33.0764   37.8715  -16.4679 N   0  0  0  0  0  0  0  0  0  0  0  0
   35.7290   40.4092  -12.0975 C   0  0  1  0  0  0  0  0  0  0  0  0
   38.0773   43.3306  -10.6687 C   0  0  1  0  0  0  0  0  0  0  0  0
   38.5620   36.9068  -11.5247 C   0  0  2  0  0  0  0  0  0  0  0  0
   37.1526   36.9748  -11.1126 N   0  0  0  0  0  0  0  0  0  0  0  0
   35.1084   36.6062  -15.8622 C   0  0  0  0  0  0  0  0  0  0  0  0
   37.1505   40.8372  -12.4650 C   0  0  2  0  0  0  0  0  0  0  0  0
   38.0469   40.5212  -11.3980 O   0  0  0  0  0  0  0  0  0  0  0  0
   37.9173   43.7285   -9.1977 C   0  0  2  0  0  0  0  0  0  0  0  0
   36.8413   44.7247   -9.1034 N   0  0  0  0  0  0  0  0  0  0  0  0
   39.2817   38.1735  -11.0548 C   0  0  1  0  0  0  0  0  0  0  0  0
   39.2813   38.2125   -9.6245 O   0  0  0  0  0  0  0  0  0  0  0  0
   36.5322   36.8109  -15.3341 C   0  0  2  0  0  0  0  0  0  0  0  0
   37.2245   35.5143  -15.2866 N   0  0  0  0  0  0  0  0  0  0  0  0
   36.9583   42.3517  -12.5142 C   0  0  2  0  0  0  0  0  0  0  0  0
   36.8108   42.8918  -11.1908 O   0  0  0  0  0  0  0  0  0  0  0  0
   39.2108   44.3423   -8.6463 C   0  0  1  0  0  0  0  0  0  0  0  0
   40.2197   43.3386   -8.5065 O   0  0  0  0  0  0  0  0  0  0  0  0
   40.7237   38.1711  -11.5656 C   0  0  2  0  0  0  0  0  0  0  0  0
   41.3584   39.4046  -11.2185 O   0  0  0  0  0  0  0  0  0  0  0  0
   36.5694   37.4436  -13.9374 C   0  0  2  0  0  0  0  0  0  0  0  0
   35.6304   42.4387  -13.2499 C   0  0  2  0  0  0  0  0  0  0  0  0
   34.8948   41.2385  -12.9275 O   0  0  0  0  0  0  0  0  0  0  0  0
   39.7358   45.4413   -9.5717 C   0  0  2  0  0  0  0  0  0  0  0  0
   38.8278   46.5461   -9.5386 O   0  0  0  0  0  0  0  0  0  0  0  0
   40.7280   37.9994  -13.0854 C   0  0  2  0  0  0  0  0  0  0  0  0
   40.0597   36.7755  -13.4495 O   0  0  0  0  0  0  0  0  0  0  0  0
   35.6842   38.6787  -13.7844 C   0  0  2  0  0  0  0  0  0  0  0  0
   35.5672   39.0106  -12.3912 O   0  0  0  0  0  0  0  0  0  0  0  0
   35.8870   42.5385  -14.7552 C   0  0  0  0  0  0  0  0  0  0  0  0
   36.2900   41.2582  -15.2466 O   0  0  0  0  0  0  0  0  0  0  0  0
   39.8479   44.8836  -10.9931 C   0  0  1  0  0  0  0  0  0  0  0  0
   38.5405   44.4633  -11.4211 O   0  0  0  0  0  0  0  0  0  0  0  0
   42.1881   37.9546  -13.5434 C   0  0  0  0  0  0  0  0  0  0  0  0
   42.2543   37.8310  -15.0067 O   0  0  0  0  0  0  0  0  0  0  0  0
   34.2939   38.4343  -14.3830 C   0  0  1  0  0  0  0  0  0  0  0  0
   33.5130   39.6292  -14.3096 O   0  0  0  0  0  0  0  0  0  0  0  0
   40.3884   45.9190  -11.9801 C   0  0  0  0  0  0  0  0  0  0  0  0
   40.4636   45.3179  -13.3190 N   0  0  0  0  0  0  0  0  0  0  0  0
  1  2  1  6  0  0  0
  1  7  1  0  0  0  0
  1 30  1  0  0  0  0
  3  4  1  1  0  0  0
  3  9  1  0  0  0  0
  3 39  1  0  0  0  0
  5 10  1  0  0  0  0
  5 26  1  0  0  0  0
  5 32  1  6  0  0  0
  6 12  1  0  0  0  0
  6 36  1  0  0  0  0
  6 19  1  6  0  0  0
  7  8  1  6  0  0  0
  7 14  1  0  0  0  0
  9 16  1  0  0  0  0
 10 11  1  1  0  0  0
 10 18  1  0  0  0  0
 12 13  1  6  0  0  0
 12 20  1  0  0  0  0
 14 15  1  1  0  0  0
 14 22  1  0  0  0  0
 16 17  1  1  0  0  0
 16 24  1  0  0  0  0
 18 19  1  1  0  0  0
 18 25  1  0  0  0  0
 20 21  1  6  0  0  0
 20 27  1  0  0  0  0
 22 23  1  6  0  0  0
 22 29  1  0  0  0  0
 24  2  1  6  0  0  0
 24 31  1  0  0  0  0
 25 26  1  0  0  0  0
 25 33  1  6  0  0  0
 27 28  1  6  0  0  0
 27 35  1  0  0  0  0
 29 30  1  0  0  0  0
 29 37  1  1  0  0  0
 31 32  1  1  0  0  0
 31 39  1  0  0  0  0
 33 34  1  0  0  0  0
 35 36  1  0  0  0  0
 35 41  1  6  0  0  0
 37 38  1  0  0  0  0
 39 40  1  6  0  0  0
 41 42  1  0  0  0  0
M  END
>  <CHROM.1>
-89.40836659,-63.82358209,-172.65223252,93.44228654,-91.14537842,74.37101550
-178.29406413,134.74380149,-179.77459939,37.82019980,40.42920319,-12.47453214
-1.87991302,-0.41326811,0.39210658

>  <Name>
3c44_lig

>  <RI>
0

>  <Rbt.Current_Directory>
/home/itssahil/PROJECTS/Mol_Feturizer/New_Systems/rnas/3c44

>  <Rbt.Executable>
rbdock ($Id: //depot/dev/client3/rdock/2013.1/src/exe/rbdock.cxx#4 $)

>  <Rbt.Library>
libRbt.so (2013.1, Build901 2013/11/27)

>  <Rbt.Parameter_File>
/export/apps/rDock/src/rDock_2013.1_src/data/scripts/dock_solv.prm

>  <Rbt.Receptor>
prm/pocket_docking_5.prm

>  <SCORE>
-11.1085

>  <SCORE.INTER>
-14.9002

>  <SCORE.INTER.CONST>
1

>  <SCORE.INTER.POLAR>
-1.61195

>  <SCORE.INTER.ROT>
9

>  <SCORE.INTER.SOLV>
16.7745

>  <SCORE.INTER.VDW>
-19.7518

>  <SCORE.INTER.norm>
-0.354767

>  <SCORE.INTRA>
3.79172

>  <SCORE.INTRA.DIHEDRAL>
3.96105

>  <SCORE.INTRA.DIHEDRAL.0>
14.8538

>  <SCORE.INTRA.POLAR>
0

>  <SCORE.INTRA.POLAR.0>
0

>  <SCORE.INTRA.REPUL>
0.065342

>  <SCORE.INTRA.REPUL.0>
0

>  <SCORE.INTRA.SOLV>
1.28078

>  <SCORE.INTRA.SOLV.lig_0>
-100.951

>  <SCORE.INTRA.VDW>
0.8441

>  <SCORE.INTRA.VDW.0>
-5.71388

>  <SCORE.INTRA.norm>
0.0902791

>  <SCORE.RESTR>
0

>  <SCORE.RESTR.CAVITY>
0

>  <SCORE.RESTR.norm>
0

>  <SCORE.SYSTEM>
0

>  <SCORE.SYSTEM.CONST>
0

>  <SCORE.SYSTEM.DIHEDRAL>
0

>  <SCORE.SYSTEM.SOLV>
0

>  <SCORE.SYSTEM.norm>
0

>  <SCORE.heavy>
42

>  <SCORE.norm>
-0.264488

>  <RMSD>
5.007

$$$$
3c44_lig
 OpenBabel11021811463D
libRbt.so/2013.1/901 2013/11/27
 42 45  0  0  0  0  0  0  0  0999 V2000
   34.9000   35.0107  -15.7972 C   0  0  2  0  0  0  0  0  0  0  0  0
   35.2317   36.4069  -15.8454 O   0  0  0  0  0  0  0  0  0  0  0  0
   34.8950   38.8831  -19.1537 C   0  0  2  0  0  0  0  0  0  0  0  0
   34.5676   39.7088  -20.3262 N   0  0  0  0  0  0  0  0  0  0  0  0
   34.7482   39.4369  -14.3726 C   0  0  1  0  0  0  0  0  0  0  0  0
   36.9965   39.8008  -10.8479 C   0  0  1  0  0  0  0  0  0  0  0  0
   34.5130   34.6370  -14.3625 C   0  0  2  0  0  0  0  0  0  0  0  0
   33.4370   35.5072  -13.8666 N   0  0  0  0  0  0  0  0  0  0  0  0
   34.4685   37.4300  -19.3808 C   0  0  0  0  0  0  0  0  0  0  0  0
   35.3467   38.1740  -13.7512 C   0  0  2  0  0  0  0  0  0  0  0  0
   34.4050   37.5757  -12.8585 O   0  0  0  0  0  0  0  0  0  0  0  0
   37.5040   38.5133  -10.1901 C   0  0  2  0  0  0  0  0  0  0  0  0
   36.3546   37.8112   -9.6026 N   0  0  0  0  0  0  0  0  0  0  0  0
   35.7131   34.7385  -13.4178 C   0  0  1  0  0  0  0  0  0  0  0  0
   35.3447   34.2309  -12.1317 O   0  0  0  0  0  0  0  0  0  0  0  0
   34.9772   36.6036  -18.1950 C   0  0  2  0  0  0  0  0  0  0  0  0
   34.5331   35.2098  -18.3471 N   0  0  0  0  0  0  0  0  0  0  0  0
   36.4731   38.8000  -12.9314 C   0  0  2  0  0  0  0  0  0  0  0  0
   35.9492   39.4854  -11.7821 O   0  0  0  0  0  0  0  0  0  0  0  0
   38.5173   38.8210   -9.0798 C   0  0  1  0  0  0  0  0  0  0  0  0
   39.7446   39.2939   -9.6410 O   0  0  0  0  0  0  0  0  0  0  0  0
   36.8818   33.9226  -13.9736 C   0  0  2  0  0  0  0  0  0  0  0  0
   38.0337   34.1086  -13.1469 O   0  0  0  0  0  0  0  0  0  0  0  0
   34.4897   37.1335  -16.8407 C   0  0  2  0  0  0  0  0  0  0  0  0
   37.0100   39.8153  -13.9280 C   0  0  2  0  0  0  0  0  0  0  0  0
   35.9001   40.2059  -14.7652 O   0  0  0  0  0  0  0  0  0  0  0  0
   37.9754   39.8811   -8.1195 C   0  0  2  0  0  0  0  0  0  0  0  0
   36.8752   39.3269   -7.3925 O   0  0  0  0  0  0  0  0  0  0  0  0
   37.1923   34.3793  -15.3999 C   0  0  2  0  0  0  0  0  0  0  0  0
   36.0272   34.2289  -16.2349 O   0  0  0  0  0  0  0  0  0  0  0  0
   34.6737   38.6379  -16.6527 C   0  0  2  0  0  0  0  0  0  0  0  0
   33.9331   39.0672  -15.4985 O   0  0  0  0  0  0  0  0  0  0  0  0
   38.1254   39.1751  -14.7571 C   0  0  0  0  0  0  0  0  0  0  0  0
   39.2110   38.8307  -13.8935 O   0  0  0  0  0  0  0  0  0  0  0  0
   37.5226   41.1000   -8.9276 C   0  0  1  0  0  0  0  0  0  0  0  0
   36.4876   40.6843   -9.8361 O   0  0  0  0  0  0  0  0  0  0  0  0
   38.3320   33.5052  -15.9295 C   0  0  0  0  0  0  0  0  0  0  0  0
   38.6928   33.9183  -17.2933 O   0  0  0  0  0  0  0  0  0  0  0  0
   34.2030   39.4070  -17.8928 C   0  0  1  0  0  0  0  0  0  0  0  0
   34.4661   40.8027  -17.7317 O   0  0  0  0  0  0  0  0  0  0  0  0
   36.9848   42.2191   -8.0350 C   0  0  0  0  0  0  0  0  0  0  0  0
   36.5820   43.3561   -8.8744 N   0  0  0  0  0  0  0  0  0  0  0  0
  1  2  1  1  0  0  0
  1  7  1  0  0  0  0
  1 30  1  0  0  0  0
  3  4  1  6  0  0  0
  3  9  1  0  0  0  0
  3 39  1  0  0  0  0
  5 10  1  0  0  0  0
  5 26  1  0  0  0  0
  5 32  1  6  0  0  0
  6 12  1  0  0  0  0
  6 36  1  0  0  0  0
  6 19  1  6  0  0  0
  7  8  1  1  0  0  0
  7 14  1  0  0  0  0
  9 16  1  0  0  0  0
 10 11  1  1  0  0  0
 10 18  1  0  0  0  0
 12 13  1  1  0  0  0
 12 20  1  0  0  0  0
 14 15  1  1  0  0  0
 14 22  1  0  0  0  0
 16 17  1  6  0  0  0
 16 24  1  0  0  0  0
 18 19  1  1  0  0  0
 18 25  1  0  0  0  0
 20 21  1  6  0  0  0
 20 27  1  0  0  0  0
 22 23  1  1  0  0  0
 22 29  1  0  0  0  0
 24  2  1  1  0  0  0
 24 31  1  0  0  0  0
 25 26  1  0  0  0  0
 25 33  1  6  0  0  0
 27 28  1  6  0  0  0
 27 35  1  0  0  0  0
 29 30  1  0  0  0  0
 29 37  1  6  0  0  0
 31 32  1  1  0  0  0
 31 39  1  0  0  0  0
 33 34  1  0  0  0  0
 35 36  1  0  0  0  0
 35 41  1  1  0  0  0
 37 38  1  0  0  0  0
 39 40  1  1  0  0  0
 41 42  1  0  0  0  0
M  END
>  <CHROM.1>
-126.10668512,-72.58135747,-70.15502923,166.37242530,-67.33203816,-63.48531461
-178.86950050,109.08298502,179.50093566,36.16607439,37.84864032,-13.81314852
-2.22698478,-1.19531102,0.52478042

>  <Name>
3c44_lig

>  <RI>
224

>  <Rbt.Current_Directory>
/home/itssahil/PROJECTS/Mol_Feturizer/New_Systems/rnas/3c44

>  <Rbt.Executable>
rbdock ($Id: //depot/dev/client3/rdock/2013.1/src/exe/rbdock.cxx#4 $)

>  <Rbt.Library>
libRbt.so (2013.1, Build901 2013/11/27)

>  <Rbt.Parameter_File>
/export/apps/rDock/src/rDock_2013.1_src/data/scripts/dock_solv.prm

>  <Rbt.Receptor>
prm/pocket_docking_8.prm

>  <SCORE>
-13.1474

>  <SCORE.INTER>
-17.2517

>  <SCORE.INTER.CONST>
1

>  <SCORE.INTER.POLAR>
-3.15333

>  <SCORE.INTER.ROT>
9

>  <SCORE.INTER.SOLV>
23.6817

>  <SCORE.INTER.VDW>
-18.4839

>  <SCORE.INTER.norm>
-0.410754

>  <SCORE.INTRA>
4.10422

>  <SCORE.INTRA.DIHEDRAL>
1.60633

>  <SCORE.INTRA.DIHEDRAL.0>
14.8538

>  <SCORE.INTRA.POLAR>
0

>  <SCORE.INTRA.POLAR.0>
0

>  <SCORE.INTRA.REPUL>
0

>  <SCORE.INTRA.REPUL.0>
0

>  <SCORE.INTRA.SOLV>
0.840976

>  <SCORE.INTRA.SOLV.lig_0>
-100.951

>  <SCORE.INTRA.VDW>
2.88056

>  <SCORE.INTRA.VDW.0>
-5.71388

>  <SCORE.INTRA.norm>
0.0977195

>  <SCORE.RESTR>
0

>  <SCORE.RESTR.CAVITY>
0

>  <SCORE.RESTR.norm>
0

>  <SCORE.SYSTEM>
0

>  <SCORE.SYSTEM.CONST>
0

>  <SCORE.SYSTEM.DIHEDRAL>
0

>  <SCORE.SYSTEM.SOLV>
0

>  <SCORE.SYSTEM.norm>
0

>  <SCORE.heavy>
42

>  <SCORE.norm>
-0.313034

>  <RMSD>
5.009

$$$$
3c44_lig
 OpenBabel11021811463D
libRbt.so/2013.1/901 2013/11/27
 42 45  0  0  0  0  0  0  0  0999 V2000
   37.4390   35.8297  -12.8711 C   0  0  2  0  0  0  0  0  0  0  0  0
   38.1447   36.2169  -11.6821 O   0  0  0  0  0  0  0  0  0  0  0  0
   38.6599   39.6974   -9.4889 C   0  0  2  0  0  0  0  0  0  0  0  0
   38.8689   41.0293   -8.9004 N   0  0  0  0  0  0  0  0  0  0  0  0
   35.8729   39.3173  -12.5721 C   0  0  1  0  0  0  0  0  0  0  0  0
   38.0188   41.6684  -14.6109 C   0  0  1  0  0  0  0  0  0  0  0  0
   37.2896   34.3048  -12.8906 C   0  0  2  0  0  0  0  0  0  0  0  0
   36.6537   33.8248  -11.6552 N   0  0  0  0  0  0  0  0  0  0  0  0
   39.8359   39.3162  -10.3927 C   0  0  0  0  0  0  0  0  0  0  0  0
   36.8343   39.0544  -13.7321 C   0  0  2  0  0  0  0  0  0  0  0  0
   38.1591   39.4455  -13.3665 O   0  0  0  0  0  0  0  0  0  0  0  0
   38.5251   42.6948  -13.5921 C   0  0  2  0  0  0  0  0  0  0  0  0
   37.6570   43.8785  -13.6592 N   0  0  0  0  0  0  0  0  0  0  0  0
   38.6459   33.6146  -13.0553 C   0  0  1  0  0  0  0  0  0  0  0  0
   38.4414   32.2089  -13.2270 O   0  0  0  0  0  0  0  0  0  0  0  0
   39.6275   37.8664  -10.8428 C   0  0  2  0  0  0  0  0  0  0  0  0
   40.7079   37.4830  -11.7641 N   0  0  0  0  0  0  0  0  0  0  0  0
   36.2889   40.0545  -14.7496 C   0  0  2  0  0  0  0  0  0  0  0  0
   36.6254   41.4004  -14.3748 O   0  0  0  0  0  0  0  0  0  0  0  0
   39.9665   43.1188  -13.9027 C   0  0  1  0  0  0  0  0  0  0  0  0
   40.8729   42.0486  -13.6235 O   0  0  0  0  0  0  0  0  0  0  0  0
   39.3704   34.1789  -14.2787 C   0  0  2  0  0  0  0  0  0  0  0  0
   40.6803   33.6118  -14.3653 O   0  0  0  0  0  0  0  0  0  0  0  0
   38.2797   37.6418  -11.5396 C   0  0  2  0  0  0  0  0  0  0  0  0
   34.7937   39.8375  -14.5775 C   0  0  2  0  0  0  0  0  0  0  0  0
   34.5864   39.4244  -13.2093 O   0  0  0  0  0  0  0  0  0  0  0  0
   40.1171   43.5200  -15.3711 C   0  0  2  0  0  0  0  0  0  0  0  0
   39.3817   44.7256  -15.5985 O   0  0  0  0  0  0  0  0  0  0  0  0
   39.4748   35.6998  -14.1554 C   0  0  2  0  0  0  0  0  0  0  0  0
   38.1613   36.2800  -14.0323 O   0  0  0  0  0  0  0  0  0  0  0  0
   37.0817   38.2203  -10.7895 C   0  0  2  0  0  0  0  0  0  0  0  0
   35.9322   38.2138  -11.6516 O   0  0  0  0  0  0  0  0  0  0  0  0
   34.3191   38.7601  -15.5550 C   0  0  0  0  0  0  0  0  0  0  0  0
   32.9247   38.5233  -15.3486 O   0  0  0  0  0  0  0  0  0  0  0  0
   39.5786   42.3906  -16.2534 C   0  0  1  0  0  0  0  0  0  0  0  0
   38.1893   42.1905  -15.9382 O   0  0  0  0  0  0  0  0  0  0  0  0
   40.1613   36.2221  -15.4201 C   0  0  0  0  0  0  0  0  0  0  0  0
   40.2992   37.6841  -15.3521 O   0  0  0  0  0  0  0  0  0  0  0  0
   37.3708   39.6487  -10.3131 C   0  0  1  0  0  0  0  0  0  0  0  0
   36.2735   40.1374   -9.5383 O   0  0  0  0  0  0  0  0  0  0  0  0
   39.7129   42.7061  -17.7436 C   0  0  0  0  0  0  0  0  0  0  0  0
   41.1375   42.7564  -18.1010 N   0  0  0  0  0  0  0  0  0  0  0  0
  1  2  1  1  0  0  0
  1  7  1  0  0  0  0
  1 30  1  0  0  0  0
  3  4  1  6  0  0  0
  3  9  1  0  0  0  0
  3 39  1  0  0  0  0
  5 10  1  0  0  0  0
  5 26  1  0  0  0  0
  5 32  1  1  0  0  0
  6 12  1  0  0  0  0
  6 36  1  0  0  0  0
  6 19  1  1  0  0  0
  7  8  1  1  0  0  0
  7 14  1  0  0  0  0
  9 16  1  0  0  0  0
 10 11  1  1  0  0  0
 10 18  1  0  0  0  0
 12 13  1  6  0  0  0
 12 20  1  0  0  0  0
 14 15  1  6  0  0  0
 14 22  1  0  0  0  0
 16 17  1  6  0  0  0
 16 24  1  0  0  0  0
 18 19  1  1  0  0  0
 18 25  1  0  0  0  0
 20 21  1  6  0  0  0
 20 27  1  0  0  0  0
 22 23  1  1  0  0  0
 22 29  1  0  0  0  0
 24  2  1  1  0  0  0
 24 31  1  0  0  0  0
 25 26  1  0  0  0  0
 25 33  1  6  0  0  0
 27 28  1  1  0  0  0
 27 35  1  0  0  0  0
 29 30  1  0  0  0  0
 29 37  1  6  0  0  0
 31 32  1  6  0  0  0
 31 39  1  0  0  0  0
 33 34  1  0  0  0  0
 35 36  1  0  0  0  0
 35 41  1  6  0  0  0
 37 38  1  0  0  0  0
 39 40  1  1  0  0  0
 41 42  1  0  0  0  0
M  END
>  <CHROM.1>
-177.18363666,77.75508639,-149.51232689,73.88216888,-146.83848186,177.63782240
-179.54303486,-81.41497084,66.34145054,38.10323260,38.95501126,-13.45098598
-1.70051282,0.90974987,-0.18682182

>  <Name>
3c44_lig

>  <RI>
0

>  <Rbt.Current_Directory>
/home/itssahil/PROJECTS/Mol_Feturizer/New_Systems/rnas/3c44

>  <Rbt.Executable>
rbdock ($Id: //depot/dev/client3/rdock/2013.1/src/exe/rbdock.cxx#4 $)

>  <Rbt.Library>
libRbt.so (2013.1, Build901 2013/11/27)

>  <Rbt.Parameter_File>
/export/apps/rDock/src/rDock_2013.1_src/data/scripts/dock_solv.prm

>  <Rbt.Receptor>
prm/pocket_docking_5.prm

>  <SCORE>
-15.5381

>  <SCORE.INTER>
-18.0102

>  <SCORE.INTER.CONST>
1

>  <SCORE.INTER.POLAR>
-2.7467

>  <SCORE.INTER.ROT>
9

>  <SCORE.INTER.SOLV>
18.254

>  <SCORE.INTER.VDW>
-18.5358

>  <SCORE.INTER.norm>
-0.428815

>  <SCORE.INTRA>
2.47215

>  <SCORE.INTRA.DIHEDRAL>
-2.05684

>  <SCORE.INTRA.DIHEDRAL.0>
14.8538

>  <SCORE.INTRA.POLAR>
0

>  <SCORE.INTRA.POLAR.0>
0

>  <SCORE.INTRA.REPUL>
0

>  <SCORE.INTRA.REPUL.0>
0

>  <SCORE.INTRA.SOLV>
-1.20048

>  <SCORE.INTRA.SOLV.lig_0>
-100.951

>  <SCORE.INTRA.VDW>
4.10081

>  <SCORE.INTRA.VDW.0>
-5.71388

>  <SCORE.INTRA.norm>
0.0588606

>  <SCORE.RESTR>
0

>  <SCORE.RESTR.CAVITY>
0

>  <SCORE.RESTR.norm>
0

>  <SCORE.SYSTEM>
0

>  <SCORE.SYSTEM.CONST>
0

>  <SCORE.SYSTEM.DIHEDRAL>
0

>  <SCORE.SYSTEM.SOLV>
0

>  <SCORE.SYSTEM.norm>
0

>  <SCORE.heavy>
42

>  <SCORE.norm>
-0.369954

>  <RMSD>
5.019

$$$$
3c44_lig
 OpenBabel11021811463D
libRbt.so/2013.1/901 2013/11/27
 42 45  0  0  0  0  0  0  0  0999 V2000
   36.0449   35.7128  -16.3766 C   0  0  2  0  0  0  0  0  0  0  0  0
   37.1137   36.5619  -15.9311 O   0  0  0  0  0  0  0  0  0  0  0  0
   38.3284   33.4553  -13.4687 C   0  0  2  0  0  0  0  0  0  0  0  0
   38.9083   32.4897  -12.5226 N   0  0  0  0  0  0  0  0  0  0  0  0
   37.4606   37.5977  -12.5416 C   0  0  1  0  0  0  0  0  0  0  0  0
   39.2067   41.0389  -13.0520 C   0  0  1  0  0  0  0  0  0  0  0  0
   35.6664   36.0950  -17.8113 C   0  0  2  0  0  0  0  0  0  0  0  0
   36.8434   36.0577  -18.6913 N   0  0  0  0  0  0  0  0  0  0  0  0
   39.4038   33.9951  -14.4160 C   0  0  0  0  0  0  0  0  0  0  0  0
   36.9130   39.0256  -12.5297 C   0  0  2  0  0  0  0  0  0  0  0  0
   37.0421   39.6089  -13.8276 O   0  0  0  0  0  0  0  0  0  0  0  0
   40.4547   41.0453  -13.9411 C   0  0  2  0  0  0  0  0  0  0  0  0
   41.6346   40.8789  -13.0813 N   0  0  0  0  0  0  0  0  0  0  0  0
   35.0432   37.4919  -17.8693 C   0  0  1  0  0  0  0  0  0  0  0  0
   34.5636   37.7392  -19.1945 O   0  0  0  0  0  0  0  0  0  0  0  0
   38.7063   34.8677  -15.4648 C   0  0  2  0  0  0  0  0  0  0  0  0
   39.7160   35.4551  -16.3583 N   0  0  0  0  0  0  0  0  0  0  0  0
   37.9251   39.6812  -11.5924 C   0  0  2  0  0  0  0  0  0  0  0  0
   39.1941   39.8477  -12.2458 O   0  0  0  0  0  0  0  0  0  0  0  0
   40.5821   42.3685  -14.7072 C   0  0  1  0  0  0  0  0  0  0  0  0
   39.5759   42.4581  -15.7194 O   0  0  0  0  0  0  0  0  0  0  0  0
   33.8802   37.5829  -16.8796 C   0  0  2  0  0  0  0  0  0  0  0  0
   33.3720   38.9194  -16.8571 O   0  0  0  0  0  0  0  0  0  0  0  0
   37.8736   35.9984  -14.8476 C   0  0  2  0  0  0  0  0  0  0  0  0
   38.0425   38.6107  -10.5188 C   0  0  2  0  0  0  0  0  0  0  0  0
   37.7881   37.3436  -11.1629 O   0  0  0  0  0  0  0  0  0  0  0  0
   40.4394   43.5650  -13.7651 C   0  0  2  0  0  0  0  0  0  0  0  0
   41.5703   43.6015  -12.8899 O   0  0  0  0  0  0  0  0  0  0  0  0
   34.3651   37.1926  -15.4826 C   0  0  2  0  0  0  0  0  0  0  0  0
   34.9117   35.8592  -15.5005 O   0  0  0  0  0  0  0  0  0  0  0  0
   36.9462   35.5507  -13.7197 C   0  0  2  0  0  0  0  0  0  0  0  0
   36.4428   36.7068  -13.0306 O   0  0  0  0  0  0  0  0  0  0  0  0
   37.0184   38.8816   -9.4146 C   0  0  0  0  0  0  0  0  0  0  0  0
   36.5120   37.6356   -8.9309 O   0  0  0  0  0  0  0  0  0  0  0  0
   39.1455   43.4138  -12.9608 C   0  0  1  0  0  0  0  0  0  0  0  0
   39.2227   42.1954  -12.2001 O   0  0  0  0  0  0  0  0  0  0  0  0
   33.1606   37.2518  -14.5397 C   0  0  0  0  0  0  0  0  0  0  0  0
   33.6046   37.1162  -13.1449 O   0  0  0  0  0  0  0  0  0  0  0  0
   37.6826   34.6339  -12.7358 C   0  0  1  0  0  0  0  0  0  0  0  0
   36.7753   34.1559  -11.7402 O   0  0  0  0  0  0  0  0  0  0  0  0
   38.9172   44.5861  -12.0058 C   0  0  0  0  0  0  0  0  0  0  0  0
   39.9686   44.5855  -10.9791 N   0  0  0  0  0  0  0  0  0  0  0  0
  1  2  1  1  0  0  0
  1  7  1  0  0  0  0
  1 30  1  0  0  0  0
  3  4  1  1  0  0  0
  3  9  1  0  0  0  0
  3 39  1  0  0  0  0
  5 10  1  0  0  0  0
  5 26  1  0  0  0  0
  5 32  1  1  0  0  0
  6 12  1  0  0  0  0
  6 36  1  0  0  0  0
  6 19  1  1  0  0  0
  7  8  1  6  0  0  0
  7 14  1  0  0  0  0
  9 16  1  0  0  0  0
 10 11  1  6  0  0  0
 10 18  1  0  0  0  0
 12 13  1  1  0  0  0
 12 20  1  0  0  0  0
 14 15  1  6  0  0  0
 14 22  1  0  0  0  0
 16 17  1  6  0  0  0
 16 24  1  0  0  0  0
 18 19  1  6  0  0  0
 18 25  1  0  0  0  0
 20 21  1  6  0  0  0
 20 27  1  0  0  0  0
 22 23  1  1  0  0  0
 22 29  1  0  0  0  0
 24  2  1  6  0  0  0
 24 31  1  0  0  0  0
 25 26  1  0  0  0  0
 25 33  1  1  0  0  0
 27 28  1  1  0  0  0
 27 35  1  0  0  0  0
 29 30  1  0  0  0  0
 29 37  1  1  0  0  0
 31 32  1  1  0  0  0
 31 39  1  0  0  0  0
 33 34  1  0  0  0  0
 35 36  1  0  0  0  0
 35 41  1  1  0  0  0
 37 38  1  0  0  0  0
 39 40  1  1  0  0  0
 41 42  1  0  0  0  0
M  END
>  <CHROM.1>
-157.90278436,149.98330985,-168.99118392,82.73562659,72.59212130,143.50595899
-170.17975087,-54.65003088,-65.51276291,37.54145909,38.32253910,-13.90211776
2.64680758,1.04026962,2.53103965

>  <Name>
3c44_lig

>  <RI>
0

>  <Rbt.Current_Directory>
/home/itssahil/PROJECTS/Mol_Feturizer/New_Systems/rnas/3c44

>  <Rbt.Executable>
rbdock ($Id: //depot/dev/client3/rdock/2013.1/src/exe/rbdock.cxx#4 $)

>  <Rbt.Library>
libRbt.so (2013.1, Build901 2013/11/27)

>  <Rbt.Parameter_File>
/export/apps/rDock/src/rDock_2013.1_src/data/scripts/dock_solv.prm

>  <Rbt.Receptor>
prm/pocket_docking_6.prm

>  <SCORE>
-11.2942

>  <SCORE.INTER>
-13.6801

>  <SCORE.INTER.CONST>
1

>  <SCORE.INTER.POLAR>
-2.82156

>  <SCORE.INTER.ROT>
9

>  <SCORE.INTER.SOLV>
16.6751

>  <SCORE.INTER.VDW>
-14.8732

>  <SCORE.INTER.norm>
-0.325716

>  <SCORE.INTRA>
2.38584

>  <SCORE.INTRA.DIHEDRAL>
-1.19794

>  <SCORE.INTRA.DIHEDRAL.0>
14.8538

>  <SCORE.INTRA.POLAR>
0

>  <SCORE.INTRA.POLAR.0>
0

>  <SCORE.INTRA.REPUL>
0

>  <SCORE.INTRA.REPUL.0>
0

>  <SCORE.INTRA.SOLV>
-1.22115

>  <SCORE.INTRA.SOLV.lig_0>
-100.951

>  <SCORE.INTRA.VDW>
3.59538

>  <SCORE.INTRA.VDW.0>
-5.71388

>  <SCORE.INTRA.norm>
0.0568056

>  <SCORE.RESTR>
0

>  <SCORE.RESTR.CAVITY>
0

>  <SCORE.RESTR.norm>
0

>  <SCORE.SYSTEM>
0

>  <SCORE.SYSTEM.CONST>
0

>  <SCORE.SYSTEM.DIHEDRAL>
0

>  <SCORE.SYSTEM.SOLV>
0

>  <SCORE.SYSTEM.norm>
0

>  <SCORE.heavy>
42

>  <SCORE.norm>
-0.26891

>  <RMSD>
5.052

$$$$
3c44_lig
 OpenBabel11021811463D
libRbt.so/2013.1/901 2013/11/27
 42 45  0  0  0  0  0  0  0  0999 V2000
   34.9877   35.5145  -15.1376 C   0  0  2  0  0  0  0  0  0  0  0  0
   35.8645   34.7288  -15.9596 O   0  0  0  0  0  0  0  0  0  0  0  0
   39.9415   33.9852  -15.8387 C   0  0  2  0  0  0  0  0  0  0  0  0
   41.4114   33.9342  -15.8122 N   0  0  0  0  0  0  0  0  0  0  0  0
   37.6417   36.7766  -13.5218 C   0  0  1  0  0  0  0  0  0  0  0  0
   38.0824   40.8858  -13.3508 C   0  0  1  0  0  0  0  0  0  0  0  0
   33.6192   34.8290  -15.0671 C   0  0  2  0  0  0  0  0  0  0  0  0
   33.7528   33.4381  -14.6102 N   0  0  0  0  0  0  0  0  0  0  0  0
   39.4495   34.7196  -17.0893 C   0  0  0  0  0  0  0  0  0  0  0  0
   37.1494   37.4517  -12.2408 C   0  0  2  0  0  0  0  0  0  0  0  0
   35.7560   37.7485  -12.3498 O   0  0  0  0  0  0  0  0  0  0  0  0
   37.2283   41.9181  -14.0941 C   0  0  2  0  0  0  0  0  0  0  0  0
   36.9137   41.3837  -15.4262 N   0  0  0  0  0  0  0  0  0  0  0  0
   32.9189   34.8427  -16.4282 C   0  0  1  0  0  0  0  0  0  0  0  0
   31.5884   34.3379  -16.2788 O   0  0  0  0  0  0  0  0  0  0  0  0
   37.9225   34.5987  -17.1307 C   0  0  2  0  0  0  0  0  0  0  0  0
   37.4066   35.3457  -18.2878 N   0  0  0  0  0  0  0  0  0  0  0  0
   37.9384   38.7572  -12.3188 C   0  0  2  0  0  0  0  0  0  0  0  0
   37.4053   39.6167  -13.3396 O   0  0  0  0  0  0  0  0  0  0  0  0
   37.9809   43.2451  -14.2574 C   0  0  1  0  0  0  0  0  0  0  0  0
   38.1018   43.9089  -12.9965 O   0  0  0  0  0  0  0  0  0  0  0  0
   32.8654   36.2723  -16.9701 C   0  0  2  0  0  0  0  0  0  0  0  0
   32.3105   36.2661  -18.2880 O   0  0  0  0  0  0  0  0  0  0  0  0
   37.2438   35.1243  -15.8596 C   0  0  2  0  0  0  0  0  0  0  0  0
   39.2981   38.2336  -12.7538 C   0  0  2  0  0  0  0  0  0  0  0  0
   39.0576   37.0368  -13.5253 O   0  0  0  0  0  0  0  0  0  0  0  0
   39.3813   43.0161  -14.8285 C   0  0  2  0  0  0  0  0  0  0  0  0
   39.2607   42.5581  -16.1782 O   0  0  0  0  0  0  0  0  0  0  0  0
   34.2775   36.8584  -17.0086 C   0  0  2  0  0  0  0  0  0  0  0  0
   34.8605   36.8378  -15.6906 O   0  0  0  0  0  0  0  0  0  0  0  0
   37.8565   34.6047  -14.5607 C   0  0  2  0  0  0  0  0  0  0  0  0
   37.3487   35.3700  -13.4556 O   0  0  0  0  0  0  0  0  0  0  0  0
   40.1467   37.9295  -11.5174 C   0  0  0  0  0  0  0  0  0  0  0  0
   40.3062   39.1271  -10.7537 O   0  0  0  0  0  0  0  0  0  0  0  0
   40.1036   41.9726  -13.9722 C   0  0  1  0  0  0  0  0  0  0  0  0
   39.3490   40.7485  -14.0145 O   0  0  0  0  0  0  0  0  0  0  0  0
   34.1681   38.3007  -17.5099 C   0  0  0  0  0  0  0  0  0  0  0  0
   33.3509   39.0964  -16.5826 O   0  0  0  0  0  0  0  0  0  0  0  0
   39.3866   34.6956  -14.6015 C   0  0  1  0  0  0  0  0  0  0  0  0
   39.9422   34.1231  -13.4155 O   0  0  0  0  0  0  0  0  0  0  0  0
   41.5249   41.7012  -14.4668 C   0  0  0  0  0  0  0  0  0  0  0  0
   42.3413   42.9086  -14.2789 N   0  0  0  0  0  0  0  0  0  0  0  0
  1  2  1  6  0  0  0
  1  7  1  0  0  0  0
  1 30  1  0  0  0  0
  3  4  1  1  0  0  0
  3  9  1  0  0  0  0
  3 39  1  0  0  0  0
  5 10  1  0  0  0  0
  5 26  1  0  0  0  0
  5 32  1  1  0  0  0
  6 12  1  0  0  0  0
  6 36  1  0  0  0  0
  6 19  1  6  0  0  0
  7  8  1  6  0  0  0
  7 14  1  0  0  0  0
  9 16  1  0  0  0  0
 10 11  1  6  0  0  0
 10 18  1  0  0  0  0
 12 13  1  6  0  0  0
 12 20  1  0  0  0  0
 14 15  1  1  0  0  0
 14 22  1  0  0  0  0
 16 17  1  6  0  0  0
 16 24  1  0  0  0  0
 18 19  1  6  0  0  0
 18 25  1  0  0  0  0
 20 21  1  1  0  0  0
 20 27  1  0  0  0  0
 22 23  1  6  0  0  0
 22 29  1  0  0  0  0
 24  2  1  6  0  0  0
 24 31  1  0  0  0  0
 25 26  1  0  0  0  0
 25 33  1  1  0  0  0
 27 28  1  6  0  0  0
 27 35  1  0  0  0  0
 29 30  1  0  0  0  0
 29 37  1  1  0  0  0
 31 32  1  1  0  0  0
 31 39  1  0  0  0  0
 33 34  1  0  0  0  0
 35 36  1  0  0  0  0
 35 41  1  6  0  0  0
 37 38  1  0  0  0  0
 39 40  1  1  0  0  0
 41 42  1  0  0  0  0
M  END
>  <CHROM.1>
-167.36878986,-175.43721275,-161.52464075,175.78173209,-158.87676810,-59.62318849
61.59203928,-60.19695060,66.31517584,37.29899940,37.74852016,-14.79148925
2.23590670,0.38684335,-3.06194876

>  <Name>
3c44_lig

>  <RI>
0

>  <Rbt.Current_Directory>
/home/itssahil/PROJECTS/Mol_Feturizer/New_Systems/rnas/3c44

>  <Rbt.Executable>
rbdock ($Id: //depot/dev/client3/rdock/2013.1/src/exe/rbdock.cxx#4 $)

>  <Rbt.Library>
libRbt.so (2013.1, Build901 2013/11/27)

>  <Rbt.Parameter_File>
/export/apps/rDock/src/rDock_2013.1_src/data/scripts/dock_solv.prm

>  <Rbt.Receptor>
prm/pocket_docking_4.prm

>  <SCORE>
-7.23018

>  <SCORE.INTER>
-3.93145

>  <SCORE.INTER.CONST>
1

>  <SCORE.INTER.POLAR>
-1.41637

>  <SCORE.INTER.ROT>
9

>  <SCORE.INTER.SOLV>
14.319

>  <SCORE.INTER.VDW>
-12.2727

>  <SCORE.INTER.norm>
-0.0936061

>  <SCORE.INTRA>
-3.54842

>  <SCORE.INTRA.DIHEDRAL>
-9.74267

>  <SCORE.INTRA.DIHEDRAL.0>
14.8538

>  <SCORE.INTRA.POLAR>
0

>  <SCORE.INTRA.POLAR.0>
0

>  <SCORE.INTRA.REPUL>
0

>  <SCORE.INTRA.REPUL.0>
0

>  <SCORE.INTRA.SOLV>
-3.41984

>  <SCORE.INTRA.SOLV.lig_0>
-100.951

>  <SCORE.INTRA.VDW>
3.03283

>  <SCORE.INTRA.VDW.0>
-5.71388

>  <SCORE.INTRA.norm>
-0.0844862

>  <SCORE.RESTR>
0.2497

>  <SCORE.RESTR.CAVITY>
0.2497

>  <SCORE.RESTR.norm>
0.00594523

>  <SCORE.SYSTEM>
0

>  <SCORE.SYSTEM.CONST>
0

>  <SCORE.SYSTEM.DIHEDRAL>
0

>  <SCORE.SYSTEM.SOLV>
0

>  <SCORE.SYSTEM.norm>
0

>  <SCORE.heavy>
42

>  <SCORE.norm>
-0.172147

>  <RMSD>
5.079

$$$$
3c44_lig
 OpenBabel11021811463D
libRbt.so/2013.1/901 2013/11/27
 42 45  0  0  0  0  0  0  0  0999 V2000
   34.4731   35.5925  -13.7335 C   0  0  2  0  0  0  0  0  0  0  0  0
   35.3010   35.1634  -14.8253 O   0  0  0  0  0  0  0  0  0  0  0  0
   38.3643   32.6100  -13.6912 C   0  0  2  0  0  0  0  0  0  0  0  0
   39.5806   31.8732  -13.3148 N   0  0  0  0  0  0  0  0  0  0  0  0
   37.0937   36.6943  -12.4886 C   0  0  1  0  0  0  0  0  0  0  0  0
   38.7483   40.5089  -12.9757 C   0  0  1  0  0  0  0  0  0  0  0  0
   33.0025   35.5018  -14.1543 C   0  0  2  0  0  0  0  0  0  0  0  0
   32.6772   34.1509  -14.6342 N   0  0  0  0  0  0  0  0  0  0  0  0
   38.5267   33.2498  -15.0730 C   0  0  0  0  0  0  0  0  0  0  0  0
   37.5135   37.4641  -11.2354 C   0  0  2  0  0  0  0  0  0  0  0  0
   36.4061   38.2104  -10.7270 O   0  0  0  0  0  0  0  0  0  0  0  0
   39.4924   40.9898  -11.7256 C   0  0  2  0  0  0  0  0  0  0  0  0
   38.4973   41.3494  -10.7060 N   0  0  0  0  0  0  0  0  0  0  0  0
   32.6746   36.5151  -15.2538 C   0  0  1  0  0  0  0  0  0  0  0  0
   31.2652   36.5034  -15.5003 O   0  0  0  0  0  0  0  0  0  0  0  0
   37.1781   33.8628  -15.4647 C   0  0  2  0  0  0  0  0  0  0  0  0
   37.3110   34.5418  -16.7625 N   0  0  0  0  0  0  0  0  0  0  0  0
   38.5182   38.4339  -11.8541 C   0  0  2  0  0  0  0  0  0  0  0  0
   37.8462   39.4459  -12.6217 O   0  0  0  0  0  0  0  0  0  0  0  0
   40.3540   42.2215  -12.0335 C   0  0  1  0  0  0  0  0  0  0  0  0
   41.4742   41.8570  -12.8442 O   0  0  0  0  0  0  0  0  0  0  0  0
   33.1050   37.9157  -14.8141 C   0  0  2  0  0  0  0  0  0  0  0  0
   32.8984   38.8402  -15.8853 O   0  0  0  0  0  0  0  0  0  0  0  0
   36.6526   34.8676  -14.4319 C   0  0  2  0  0  0  0  0  0  0  0  0
   39.2660   37.4981  -12.7907 C   0  0  2  0  0  0  0  0  0  0  0  0
   38.3334   36.4683  -13.1846 O   0  0  0  0  0  0  0  0  0  0  0  0
   39.5427   43.2900  -12.7680 C   0  0  2  0  0  0  0  0  0  0  0  0
   38.5557   43.8154  -11.8759 O   0  0  0  0  0  0  0  0  0  0  0  0
   34.5844   37.8986  -14.4266 C   0  0  2  0  0  0  0  0  0  0  0  0
   34.8108   36.9443  -13.3706 O   0  0  0  0  0  0  0  0  0  0  0  0
   36.6922   34.3642  -12.9905 C   0  0  2  0  0  0  0  0  0  0  0  0
   36.4599   35.4644  -12.0958 O   0  0  0  0  0  0  0  0  0  0  0  0
   40.4694   36.8993  -12.0593 C   0  0  0  0  0  0  0  0  0  0  0  0
   41.4385   36.4773  -13.0214 O   0  0  0  0  0  0  0  0  0  0  0  0
   38.8748   42.6551  -13.9906 C   0  0  1  0  0  0  0  0  0  0  0  0
   38.0054   41.6022  -13.5381 O   0  0  0  0  0  0  0  0  0  0  0  0
   34.9557   39.3050  -13.9495 C   0  0  0  0  0  0  0  0  0  0  0  0
   34.7165   39.4269  -12.5042 O   0  0  0  0  0  0  0  0  0  0  0  0
   38.0422   33.7091  -12.6755 C   0  0  1  0  0  0  0  0  0  0  0  0
   38.0259   33.1667  -11.3532 O   0  0  0  0  0  0  0  0  0  0  0  0
   38.0580   43.6672  -14.7949 C   0  0  0  0  0  0  0  0  0  0  0  0
   36.8705   44.0549  -14.0208 N   0  0  0  0  0  0  0  0  0  0  0  0
  1  2  1  6  0  0  0
  1  7  1  0  0  0  0
  1 30  1  0  0  0  0
  3  4  1  1  0  0  0
  3  9  1  0  0  0  0
  3 39  1  0  0  0  0
  5 10  1  0  0  0  0
  5 26  1  0  0  0  0
  5 32  1  1  0  0  0
  6 12  1  0  0  0  0
  6 36  1  0  0  0  0
  6 19  1  1  0  0  0
  7  8  1  6  0  0  0
  7 14  1  0  0  0  0
  9 16  1  0  0  0  0
 10 11  1  6  0  0  0
 10 18  1  0  0  0  0
 12 13  1  1  0  0  0
 12 20  1  0  0  0  0
 14 15  1  1  0  0  0
 14 22  1  0  0  0  0
 16 17  1  6  0  0  0
 16 24  1  0  0  0  0
 18 19  1  6  0  0  0
 18 25  1  0  0  0  0
 20 21  1  6  0  0  0
 20 27  1  0  0  0  0
 22 23  1  6  0  0  0
 22 29  1  0  0  0  0
 24  2  1  6  0  0  0
 24 31  1  0  0  0  0
 25 26  1  0  0  0  0
 25 33  1  1  0  0  0
 27 28  1  1  0  0  0
 27 35  1  0  0  0  0
 29 30  1  0  0  0  0
 29 37  1  1  0  0  0
 31 32  1  1  0  0  0
 31 39  1  0  0  0  0
 33 34  1  0  0  0  0
 35 36  1  0  0  0  0
 35 41  1  1  0  0  0
 37 38  1  0  0  0  0
 39 40  1  1  0  0  0
 41 42  1  0  0  0  0
M  END
>  <CHROM.1>
-164.25488631,-146.29828774,-50.25208665,168.17418825,154.49694646,-157.10416740
89.14790294,-39.27866557,-69.77720441,37.05225152,37.76399062,-13.37273329
1.97195069,0.33288812,-3.09716319

>  <Name>
3c44_lig

>  <RI>
0

>  <Rbt.Current_Directory>
/home/itssahil/PROJECTS/Mol_Feturizer/New_Systems/rnas/3c44

>  <Rbt.Executable>
rbdock ($Id: //depot/dev/client3/rdock/2013.1/src/exe/rbdock.cxx#4 $)

>  <Rbt.Library>
libRbt.so (2013.1, Build901 2013/11/27)

>  <Rbt.Parameter_File>
/export/apps/rDock/src/rDock_2013.1_src/data/scripts/dock_solv.prm

>  <Rbt.Receptor>
prm/pocket_docking_2.prm

>  <SCORE>
3.35238

>  <SCORE.INTER>
-11.1072

>  <SCORE.INTER.CONST>
1

>  <SCORE.INTER.POLAR>
-2.06016

>  <SCORE.INTER.ROT>
9

>  <SCORE.INTER.SOLV>
23.4549

>  <SCORE.INTER.VDW>
-17.9559

>  <SCORE.INTER.norm>
-0.264457

>  <SCORE.INTRA>
11.8905

>  <SCORE.INTRA.DIHEDRAL>
1.20016

>  <SCORE.INTRA.DIHEDRAL.0>
14.8538

>  <SCORE.INTRA.POLAR>
0

>  <SCORE.INTRA.POLAR.0>
0

>  <SCORE.INTRA.REPUL>
0.0793079

>  <SCORE.INTRA.REPUL.0>
0

>  <SCORE.INTRA.SOLV>
-0.610915

>  <SCORE.INTRA.SOLV.lig_0>
-100.951

>  <SCORE.INTRA.VDW>
11.1994

>  <SCORE.INTRA.VDW.0>
-5.71388

>  <SCORE.INTRA.norm>
0.283108

>  <SCORE.RESTR>
2.56903

>  <SCORE.RESTR.CAVITY>
2.56903

>  <SCORE.RESTR.norm>
0.0611673

>  <SCORE.SYSTEM>
0

>  <SCORE.SYSTEM.CONST>
0

>  <SCORE.SYSTEM.DIHEDRAL>
0

>  <SCORE.SYSTEM.SOLV>
0

>  <SCORE.SYSTEM.norm>
0

>  <SCORE.heavy>
42

>  <SCORE.norm>
0.0798185

>  <RMSD>
5.087

$$$$
3c44_lig
 OpenBabel11021811463D
libRbt.so/2013.1/901 2013/11/27
 42 45  0  0  0  0  0  0  0  0999 V2000
   35.2818   38.7164  -13.2997 C   0  0  2  0  0  0  0  0  0  0  0  0
   36.3934   38.2427  -14.0755 O   0  0  0  0  0  0  0  0  0  0  0  0
   34.7165   34.4645  -13.7549 C   0  0  2  0  0  0  0  0  0  0  0  0
   34.2715   33.0627  -13.7820 N   0  0  0  0  0  0  0  0  0  0  0  0
   38.4810   37.4435  -12.7622 C   0  0  1  0  0  0  0  0  0  0  0  0
   40.3999   41.0384  -13.0711 C   0  0  1  0  0  0  0  0  0  0  0  0
   34.9570   40.1548  -13.7164 C   0  0  2  0  0  0  0  0  0  0  0  0
   34.7327   40.2421  -15.1666 N   0  0  0  0  0  0  0  0  0  0  0  0
   34.7320   35.0531  -15.1686 C   0  0  0  0  0  0  0  0  0  0  0  0
   39.7433   37.5577  -11.9062 C   0  0  2  0  0  0  0  0  0  0  0  0
   39.4006   37.9800  -10.5848 O   0  0  0  0  0  0  0  0  0  0  0  0
   41.6114   41.5442  -12.2811 C   0  0  2  0  0  0  0  0  0  0  0  0
   41.1665   41.8867  -10.9231 N   0  0  0  0  0  0  0  0  0  0  0  0
   36.0833   41.1152  -13.3263 C   0  0  1  0  0  0  0  0  0  0  0  0
   35.6689   42.4592  -13.5898 O   0  0  0  0  0  0  0  0  0  0  0  0
   35.0510   36.5471  -15.0484 C   0  0  2  0  0  0  0  0  0  0  0  0
   35.1353   37.1362  -16.3933 N   0  0  0  0  0  0  0  0  0  0  0  0
   40.4390   38.7108  -12.6267 C   0  0  2  0  0  0  0  0  0  0  0  0
   39.7754   39.9568  -12.3575 O   0  0  0  0  0  0  0  0  0  0  0  0
   42.2161   42.7938  -12.9345 C   0  0  1  0  0  0  0  0  0  0  0  0
   42.8661   42.4507  -14.1612 O   0  0  0  0  0  0  0  0  0  0  0  0
   36.4042   40.9618  -11.8384 C   0  0  2  0  0  0  0  0  0  0  0  0
   37.5284   41.7793  -11.5026 O   0  0  0  0  0  0  0  0  0  0  0  0
   36.3633   36.8229  -14.3039 C   0  0  2  0  0  0  0  0  0  0  0  0
   40.2058   38.3131  -14.0757 C   0  0  2  0  0  0  0  0  0  0  0  0
   38.9677   37.5707  -14.1111 O   0  0  0  0  0  0  0  0  0  0  0  0
   41.1374   43.8386  -13.2254 C   0  0  2  0  0  0  0  0  0  0  0  0
   40.6391   44.3461  -11.9843 O   0  0  0  0  0  0  0  0  0  0  0  0
   36.7223   39.4975  -11.5317 C   0  0  2  0  0  0  0  0  0  0  0  0
   35.6087   38.6594  -11.8987 O   0  0  0  0  0  0  0  0  0  0  0  0
   36.5076   36.0657  -12.9854 C   0  0  2  0  0  0  0  0  0  0  0  0
   37.8654   36.1654  -12.5258 O   0  0  0  0  0  0  0  0  0  0  0  0
   41.3754   37.4554  -14.5635 C   0  0  0  0  0  0  0  0  0  0  0  0
   41.3907   36.2269  -13.8330 O   0  0  0  0  0  0  0  0  0  0  0  0
   40.0101   43.1807  -14.0254 C   0  0  1  0  0  0  0  0  0  0  0  0
   39.4585   42.1105  -13.2382 O   0  0  0  0  0  0  0  0  0  0  0  0
   36.9886   39.3853  -10.0284 C   0  0  0  0  0  0  0  0  0  0  0  0
   36.8952   37.9813   -9.6029 O   0  0  0  0  0  0  0  0  0  0  0  0
   36.1186   34.5922  -13.1540 C   0  0  1  0  0  0  0  0  0  0  0  0
   36.1749   33.9241  -11.8917 O   0  0  0  0  0  0  0  0  0  0  0  0
   38.8967   44.1684  -14.3765 C   0  0  0  0  0  0  0  0  0  0  0  0
   39.4500   45.2448  -15.2101 N   0  0  0  0  0  0  0  0  0  0  0  0
  1  2  1  6  0  0  0
  1  7  1  0  0  0  0
  1 30  1  0  0  0  0
  3  4  1  6  0  0  0
  3  9  1  0  0  0  0
  3 39  1  0  0  0  0
  5 10  1  0  0  0  0
  5 26  1  0  0  0  0
  5 32  1  6  0  0  0
  6 12  1  0  0  0  0
  6 36  1  0  0  0  0
  6 19  1  1  0  0  0
  7  8  1  6  0  0  0
  7 14  1  0  0  0  0
  9 16  1  0  0  0  0
 10 11  1  1  0  0  0
 10 18  1  0  0  0  0
 12 13  1  1  0  0  0
 12 20  1  0  0  0  0
 14 15  1  1  0  0  0
 14 22  1  0  0  0  0
 16 17  1  6  0  0  0
 16 24  1  0  0  0  0
 18 19  1  6  0  0  0
 18 25  1  0  0  0  0
 20 21  1  6  0  0  0
 20 27  1  0  0  0  0
 22 23  1  6  0  0  0
 22 29  1  0  0  0  0
 24  2  1  1  0  0  0
 24 31  1  0  0  0  0
 25 26  1  0  0  0  0
 25 33  1  1  0  0  0
 27 28  1  1  0  0  0
 27 35  1  0  0  0  0
 29 30  1  0  0  0  0
 29 37  1  1  0  0  0
 31 32  1  6  0  0  0
 31 39  1  0  0  0  0
 33 34  1  0  0  0  0
 35 36  1  0  0  0  0
 35 41  1  1  0  0  0
 37 38  1  0  0  0  0
 39 40  1  1  0  0  0
 41 42  1  0  0  0  0
M  END
>  <CHROM.1>
-149.72726730,164.41295897,-83.29532214,-178.01329770,59.50662168,65.26304610
162.82088185,37.79216790,61.26181032,38.06430576,39.21634459,-13.08655313
2.15969061,0.18598755,3.07391133

>  <Name>
3c44_lig

>  <RI>
224

>  <Rbt.Current_Directory>
/home/itssahil/PROJECTS/Mol_Feturizer/New_Systems/rnas/3c44

>  <Rbt.Executable>
rbdock ($Id: //depot/dev/client3/rdock/2013.1/src/exe/rbdock.cxx#4 $)

>  <Rbt.Library>
libRbt.so (2013.1, Build901 2013/11/27)

>  <Rbt.Parameter_File>
/export/apps/rDock/src/rDock_2013.1_src/data/scripts/dock_solv.prm

>  <Rbt.Receptor>
prm/pocket_docking_3.prm

>  <SCORE>
-13.8044

>  <SCORE.INTER>
-16.5275

>  <SCORE.INTER.CONST>
1

>  <SCORE.INTER.POLAR>
-2.42882

>  <SCORE.INTER.ROT>
9

>  <SCORE.INTER.SOLV>
19.9788

>  <SCORE.INTER.VDW>
-19.1819

>  <SCORE.INTER.norm>
-0.393513

>  <SCORE.INTRA>
2.55231

>  <SCORE.INTRA.DIHEDRAL>
-3.95208

>  <SCORE.INTRA.DIHEDRAL.0>
14.8538

>  <SCORE.INTRA.POLAR>
0

>  <SCORE.INTRA.POLAR.0>
0

>  <SCORE.INTRA.REPUL>
0

>  <SCORE.INTRA.REPUL.0>
0

>  <SCORE.INTRA.SOLV>
1.16209

>  <SCORE.INTRA.SOLV.lig_0>
-100.951

>  <SCORE.INTRA.VDW>
3.94731

>  <SCORE.INTRA.VDW.0>
-5.71388

>  <SCORE.INTRA.norm>
0.0607693

>  <SCORE.RESTR>
0.170804

>  <SCORE.RESTR.CAVITY>
0.170804

>  <SCORE.RESTR.norm>
0.00406677

>  <SCORE.SYSTEM>
0

>  <SCORE.SYSTEM.CONST>
0

>  <SCORE.SYSTEM.DIHEDRAL>
0

>  <SCORE.SYSTEM.SOLV>
0

>  <SCORE.SYSTEM.norm>
0

>  <SCORE.heavy>
42

>  <SCORE.norm>
-0.328676

>  <RMSD>
5.105

$$$$
3c44_lig
 OpenBabel11021811463D
libRbt.so/2013.1/901 2013/11/27
 42 45  0  0  0  0  0  0  0  0999 V2000
   38.1732   35.6311  -15.5317 C   0  0  2  0  0  0  0  0  0  0  0  0
   37.5648   36.9270  -15.6428 O   0  0  0  0  0  0  0  0  0  0  0  0
   34.8411   38.6160  -18.2730 C   0  0  2  0  0  0  0  0  0  0  0  0
   33.7851   39.0204  -19.2138 N   0  0  0  0  0  0  0  0  0  0  0  0
   34.9748   38.3904  -13.5502 C   0  0  1  0  0  0  0  0  0  0  0  0
   37.2405   39.9073  -10.4794 C   0  0  1  0  0  0  0  0  0  0  0  0
   37.4692   34.8405  -14.4240 C   0  0  2  0  0  0  0  0  0  0  0  0
   36.0196   34.7833  -14.6614 N   0  0  0  0  0  0  0  0  0  0  0  0
   35.6303   37.4261  -18.8266 C   0  0  0  0  0  0  0  0  0  0  0  0
   36.4180   38.8959  -13.5275 C   0  0  2  0  0  0  0  0  0  0  0  0
   37.2578   37.9456  -12.8690 O   0  0  0  0  0  0  0  0  0  0  0  0
   37.1741   39.0489   -9.2120 C   0  0  2  0  0  0  0  0  0  0  0  0
   35.9270   39.3678   -8.5034 N   0  0  0  0  0  0  0  0  0  0  0  0
   37.7262   35.4603  -13.0482 C   0  0  1  0  0  0  0  0  0  0  0  0
   37.1856   34.6041  -12.0372 O   0  0  0  0  0  0  0  0  0  0  0  0
   36.8027   37.1610  -17.8762 C   0  0  2  0  0  0  0  0  0  0  0  0
   37.5504   35.9837  -18.3426 N   0  0  0  0  0  0  0  0  0  0  0  0
   36.2493   40.1144  -12.6222 C   0  0  2  0  0  0  0  0  0  0  0  0
   36.0462   39.7133  -11.2573 O   0  0  0  0  0  0  0  0  0  0  0  0
   38.3602   39.3399   -8.2833 C   0  0  1  0  0  0  0  0  0  0  0  0
   39.5717   38.8293   -8.8459 O   0  0  0  0  0  0  0  0  0  0  0  0
   39.2307   35.6264  -12.8265 C   0  0  2  0  0  0  0  0  0  0  0  0
   39.4619   36.3054  -11.5893 O   0  0  0  0  0  0  0  0  0  0  0  0
   36.3592   36.9237  -16.4272 C   0  0  2  0  0  0  0  0  0  0  0  0
   34.9595   40.6965  -13.1786 C   0  0  2  0  0  0  0  0  0  0  0  0
   34.1928   39.5897  -13.7007 O   0  0  0  0  0  0  0  0  0  0  0  0
   38.5212   40.8433   -8.0520 C   0  0  2  0  0  0  0  0  0  0  0  0
   37.4062   41.3157   -7.2907 O   0  0  0  0  0  0  0  0  0  0  0  0
   39.8316   36.4345  -13.9776 C   0  0  2  0  0  0  0  0  0  0  0  0
   39.5744   35.7770  -15.2341 O   0  0  0  0  0  0  0  0  0  0  0  0
   35.3721   37.9608  -15.8954 C   0  0  2  0  0  0  0  0  0  0  0  0
   34.8079   37.4911  -14.6602 O   0  0  0  0  0  0  0  0  0  0  0  0
   35.2892   41.7054  -14.2807 C   0  0  0  0  0  0  0  0  0  0  0  0
   35.8564   41.0122  -15.3946 O   0  0  0  0  0  0  0  0  0  0  0  0
   38.5818   41.5519   -9.4077 C   0  0  1  0  0  0  0  0  0  0  0  0
   37.3549   41.2914  -10.1121 O   0  0  0  0  0  0  0  0  0  0  0  0
   41.3403   36.5330  -13.7378 C   0  0  0  0  0  0  0  0  0  0  0  0
   41.9580   37.3939  -14.7567 O   0  0  0  0  0  0  0  0  0  0  0  0
   34.2563   38.2277  -16.9127 C   0  0  1  0  0  0  0  0  0  0  0  0
   33.3958   39.2637  -16.4340 O   0  0  0  0  0  0  0  0  0  0  0  0
   38.7643   43.0633   -9.2633 C   0  0  0  0  0  0  0  0  0  0  0  0
   37.6109   43.6234   -8.5453 N   0  0  0  0  0  0  0  0  0  0  0  0
  1  2  1  1  0  0  0
  1  7  1  0  0  0  0
  1 30  1  0  0  0  0
  3  4  1  6  0  0  0
  3  9  1  0  0  0  0
  3 39  1  0  0  0  0
  5 10  1  0  0  0  0
  5 26  1  0  0  0  0
  5 32  1  6  0  0  0
  6 12  1  0  0  0  0
  6 36  1  0  0  0  0
  6 19  1  1  0  0  0
  7  8  1  6  0  0  0
  7 14  1  0  0  0  0
  9 16  1  0  0  0  0
 10 11  1  1  0  0  0
 10 18  1  0  0  0  0
 12 13  1  1  0  0  0
 12 20  1  0  0  0  0
 14 15  1  1  0  0  0
 14 22  1  0  0  0  0
 16 17  1  6  0  0  0
 16 24  1  0  0  0  0
 18 19  1  1  0  0  0
 18 25  1  0  0  0  0
 20 21  1  6  0  0  0
 20 27  1  0  0  0  0
 22 23  1  1  0  0  0
 22 29  1  0  0  0  0
 24  2  1  1  0  0  0
 24 31  1  0  0  0  0
 25 26  1  0  0  0  0
 25 33  1  6  0  0  0
 27 28  1  1  0  0  0
 27 35  1  0  0  0  0
 29 30  1  0  0  0  0
 29 37  1  1  0  0  0
 31 32  1  1  0  0  0
 31 39  1  0  0  0  0
 33 34  1  0  0  0  0
 35 36  1  0  0  0  0
 35 41  1  1  0  0  0
 37 38  1  0  0  0  0
 39 40  1  1  0  0  0
 41 42  1  0  0  0  0
M  END
>  <CHROM.1>
-81.97215312,-45.66195105,-160.28369050,103.84927214,-88.86209715,67.14194316
-175.38876786,124.07776868,-61.87837233,37.06204826,38.44924659,-13.27996142
-1.84151858,-0.74346758,0.95994700

>  <Name>
3c44_lig

>  <RI>
0

>  <Rbt.Current_Directory>
/home/itssahil/PROJECTS/Mol_Feturizer/New_Systems/rnas/3c44

>  <Rbt.Executable>
rbdock ($Id: //depot/dev/client3/rdock/2013.1/src/exe/rbdock.cxx#4 $)

>  <Rbt.Library>
libRbt.so (2013.1, Build901 2013/11/27)

>  <Rbt.Parameter_File>
/export/apps/rDock/src/rDock_2013.1_src/data/scripts/dock_solv.prm

>  <Rbt.Receptor>
prm/pocket_docking_7.prm

>  <SCORE>
-11.8913

>  <SCORE.INTER>
-19.1279

>  <SCORE.INTER.CONST>
1

>  <SCORE.INTER.POLAR>
-3.63907

>  <SCORE.INTER.ROT>
9

>  <SCORE.INTER.SOLV>
13.6062

>  <SCORE.INTER.VDW>
-14.7571

>  <SCORE.INTER.norm>
-0.455426

>  <SCORE.INTRA>
7.23653

>  <SCORE.INTRA.DIHEDRAL>
6.6211

>  <SCORE.INTRA.DIHEDRAL.0>
14.8538

>  <SCORE.INTRA.POLAR>
0

>  <SCORE.INTRA.POLAR.0>
0

>  <SCORE.INTRA.REPUL>
0.0106816

>  <SCORE.INTRA.REPUL.0>
0

>  <SCORE.INTRA.SOLV>
3.91004

>  <SCORE.INTRA.SOLV.lig_0>
-100.951

>  <SCORE.INTRA.VDW>
1.91755

>  <SCORE.INTRA.VDW.0>
-5.71388

>  <SCORE.INTRA.norm>
0.172298

>  <SCORE.RESTR>
0

>  <SCORE.RESTR.CAVITY>
0

>  <SCORE.RESTR.norm>
0

>  <SCORE.SYSTEM>
0

>  <SCORE.SYSTEM.CONST>
0

>  <SCORE.SYSTEM.DIHEDRAL>
0

>  <SCORE.SYSTEM.SOLV>
0

>  <SCORE.SYSTEM.norm>
0

>  <SCORE.heavy>
42

>  <SCORE.norm>
-0.283127

>  <RMSD>
5.129

$$$$
3c44_lig
 OpenBabel11021811463D
libRbt.so/2013.1/901 2013/11/27
 42 45  0  0  0  0  0  0  0  0999 V2000
   36.0196   35.5808  -17.6050 C   0  0  2  0  0  0  0  0  0  0  0  0
   35.3279   36.6302  -16.9106 O   0  0  0  0  0  0  0  0  0  0  0  0
   31.5196   38.0686  -17.6960 C   0  0  2  0  0  0  0  0  0  0  0  0
   30.1036   38.3757  -17.9500 N   0  0  0  0  0  0  0  0  0  0  0  0
   34.1900   37.6959  -13.7546 C   0  0  1  0  0  0  0  0  0  0  0  0
   36.9730   39.6036  -11.2816 C   0  0  1  0  0  0  0  0  0  0  0  0
   36.1297   34.3598  -16.6858 C   0  0  2  0  0  0  0  0  0  0  0  0
   34.8057   33.9551  -16.1914 N   0  0  0  0  0  0  0  0  0  0  0  0
   32.0160   36.9811  -18.6531 C   0  0  0  0  0  0  0  0  0  0  0  0
   35.6757   37.4567  -14.0274 C   0  0  2  0  0  0  0  0  0  0  0  0
   36.1199   36.2939  -13.3256 O   0  0  0  0  0  0  0  0  0  0  0  0
   38.4455   39.4549  -11.6783 C   0  0  2  0  0  0  0  0  0  0  0  0
   38.8714   38.0836  -11.3660 N   0  0  0  0  0  0  0  0  0  0  0  0
   37.0440   34.6428  -15.4912 C   0  0  1  0  0  0  0  0  0  0  0  0
   37.2420   33.4336  -14.7524 O   0  0  0  0  0  0  0  0  0  0  0  0
   33.5253   36.8247  -18.4390 C   0  0  2  0  0  0  0  0  0  0  0  0
   34.0291   35.7436  -19.2994 N   0  0  0  0  0  0  0  0  0  0  0  0
   36.2636   38.6940  -13.3518 C   0  0  2  0  0  0  0  0  0  0  0  0
   36.1945   38.5770  -11.9212 O   0  0  0  0  0  0  0  0  0  0  0  0
   39.3305   40.4380  -10.9009 C   0  0  1  0  0  0  0  0  0  0  0  0
   39.1035   41.7765  -11.3500 O   0  0  0  0  0  0  0  0  0  0  0  0
   38.3939   35.1677  -15.9837 C   0  0  2  0  0  0  0  0  0  0  0  0
   39.2043   35.5344  -14.8640 O   0  0  0  0  0  0  0  0  0  0  0  0
   33.8962   36.5130  -16.9838 C   0  0  2  0  0  0  0  0  0  0  0  0
   35.2850   39.7582  -13.8229 C   0  0  2  0  0  0  0  0  0  0  0  0
   34.0141   39.1005  -14.0170 O   0  0  0  0  0  0  0  0  0  0  0  0
   39.0431   40.3677   -9.4002 C   0  0  2  0  0  0  0  0  0  0  0  0
   39.4784   39.0982   -8.9052 O   0  0  0  0  0  0  0  0  0  0  0  0
   38.1729   36.3867  -16.8806 C   0  0  2  0  0  0  0  0  0  0  0  0
   37.3282   36.0375  -17.9949 O   0  0  0  0  0  0  0  0  0  0  0  0
   33.2314   37.4277  -15.9572 C   0  0  2  0  0  0  0  0  0  0  0  0
   33.4099   36.8762  -14.6424 O   0  0  0  0  0  0  0  0  0  0  0  0
   35.7909   40.3735  -15.1295 C   0  0  0  0  0  0  0  0  0  0  0  0
   34.6938   40.5163  -16.0344 O   0  0  0  0  0  0  0  0  0  0  0  0
   37.5394   40.5434   -9.1725 C   0  0  1  0  0  0  0  0  0  0  0  0
   36.8491   39.4822   -9.8556 O   0  0  0  0  0  0  0  0  0  0  0  0
   39.5430   36.8457  -17.3862 C   0  0  0  0  0  0  0  0  0  0  0  0
   39.3957   38.0440  -18.2249 O   0  0  0  0  0  0  0  0  0  0  0  0
   31.7369   37.5934  -16.2571 C   0  0  1  0  0  0  0  0  0  0  0  0
   31.1540   38.5216  -15.3397 O   0  0  0  0  0  0  0  0  0  0  0  0
   37.1703   40.5065   -7.6890 C   0  0  0  0  0  0  0  0  0  0  0  0
   35.7384   40.8012   -7.5392 N   0  0  0  0  0  0  0  0  0  0  0  0
  1  2  1  1  0  0  0
  1  7  1  0  0  0  0
  1 30  1  0  0  0  0
  3  4  1  1  0  0  0
  3  9  1  0  0  0  0
  3 39  1  0  0  0  0
  5 10  1  0  0  0  0
  5 26  1  0  0  0  0
  5 32  1  6  0  0  0
  6 12  1  0  0  0  0
  6 36  1  0  0  0  0
  6 19  1  6  0  0  0
  7  8  1  1  0  0  0
  7 14  1  0  0  0  0
  9 16  1  0  0  0  0
 10 11  1  1  0  0  0
 10 18  1  0  0  0  0
 12 13  1  1  0  0  0
 12 20  1  0  0  0  0
 14 15  1  6  0  0  0
 14 22  1  0  0  0  0
 16 17  1  6  0  0  0
 16 24  1  0  0  0  0
 18 19  1  1  0  0  0
 18 25  1  0  0  0  0
 20 21  1  6  0  0  0
 20 27  1  0  0  0  0
 22 23  1  1  0  0  0
 22 29  1  0  0  0  0
 24  2  1  6  0  0  0
 24 31  1  0  0  0  0
 25 26  1  0  0  0  0
 25 33  1  6  0  0  0
 27 28  1  6  0  0  0
 27 35  1  0  0  0  0
 29 30  1  0  0  0  0
 29 37  1  6  0  0  0
 31 32  1  1  0  0  0
 31 39  1  0  0  0  0
 33 34  1  0  0  0  0
 35 36  1  0  0  0  0
 35 41  1  1  0  0  0
 37 38  1  0  0  0  0
 39 40  1  1  0  0  0
 41 42  1  0  0  0  0
M  END
>  <CHROM.1>
-83.91257631,-82.12030757,-61.73186648,168.71357239,-70.05263660,136.94822508
-178.31687869,116.49262124,174.93395381,35.97412232,37.81846470,-14.38349325
-2.02505835,-0.31447686,0.98959704

>  <Name>
3c44_lig

>  <RI>
224

>  <Rbt.Current_Directory>
/home/itssahil/PROJECTS/Mol_Feturizer/New_Systems/rnas/3c44

>  <Rbt.Executable>
rbdock ($Id: //depot/dev/client3/rdock/2013.1/src/exe/rbdock.cxx#4 $)

>  <Rbt.Library>
libRbt.so (2013.1, Build901 2013/11/27)

>  <Rbt.Parameter_File>
/export/apps/rDock/src/rDock_2013.1_src/data/scripts/dock_solv.prm

>  <Rbt.Receptor>
prm/pocket_docking_8.prm

>  <SCORE>
-7.03192

>  <SCORE.INTER>
-11.511

>  <SCORE.INTER.CONST>
1

>  <SCORE.INTER.POLAR>
-2.84488

>  <SCORE.INTER.ROT>
9

>  <SCORE.INTER.SOLV>
14.9237

>  <SCORE.INTER.VDW>
-12.7656

>  <SCORE.INTER.norm>
-0.274071

>  <SCORE.INTRA>
4.47905

>  <SCORE.INTRA.DIHEDRAL>
2.78358

>  <SCORE.INTRA.DIHEDRAL.0>
14.8538

>  <SCORE.INTRA.POLAR>
0

>  <SCORE.INTRA.POLAR.0>
0

>  <SCORE.INTRA.REPUL>
0

>  <SCORE.INTRA.REPUL.0>
0

>  <SCORE.INTRA.SOLV>
1.41124

>  <SCORE.INTRA.SOLV.lig_0>
-100.951

>  <SCORE.INTRA.VDW>
2.38164

>  <SCORE.INTRA.VDW.0>
-5.71388

>  <SCORE.INTRA.norm>
0.106644

>  <SCORE.RESTR>
0

>  <SCORE.RESTR.CAVITY>
0

>  <SCORE.RESTR.norm>
0

>  <SCORE.SYSTEM>
0

>  <SCORE.SYSTEM.CONST>
0

>  <SCORE.SYSTEM.DIHEDRAL>
0

>  <SCORE.SYSTEM.SOLV>
0

>  <SCORE.SYSTEM.norm>
0

>  <SCORE.heavy>
42

>  <SCORE.norm>
-0.167427

>  <RMSD>
5.173

$$$$
3c44_lig
 OpenBabel11021811463D
libRbt.so/2013.1/901 2013/11/27
 42 45  0  0  0  0  0  0  0  0999 V2000
   33.0498   35.8180  -14.8939 C   0  0  2  0  0  0  0  0  0  0  0  0
   33.9818   36.6612  -15.5882 O   0  0  0  0  0  0  0  0  0  0  0  0
   36.8657   35.6407  -12.7898 C   0  0  2  0  0  0  0  0  0  0  0  0
   38.0045   35.4388  -11.8809 N   0  0  0  0  0  0  0  0  0  0  0  0
   35.3300   39.4988  -13.1959 C   0  0  1  0  0  0  0  0  0  0  0  0
   37.8501   42.7186  -13.3752 C   0  0  1  0  0  0  0  0  0  0  0  0
   32.9200   34.4893  -15.6460 C   0  0  2  0  0  0  0  0  0  0  0  0
   34.2369   33.8651  -15.8380 N   0  0  0  0  0  0  0  0  0  0  0  0
   37.3227   35.5771  -14.2500 C   0  0  0  0  0  0  0  0  0  0  0  0
   34.6497   40.8153  -13.5743 C   0  0  2  0  0  0  0  0  0  0  0  0
   34.5784   40.9370  -14.9962 O   0  0  0  0  0  0  0  0  0  0  0  0
   38.8563   43.0540  -14.4810 C   0  0  2  0  0  0  0  0  0  0  0  0
   39.3960   41.7944  -15.0114 N   0  0  0  0  0  0  0  0  0  0  0  0
   32.2559   34.6850  -17.0112 C   0  0  1  0  0  0  0  0  0  0  0  0
   32.0130   33.4059  -17.6047 O   0  0  0  0  0  0  0  0  0  0  0  0
   36.0721   35.6379  -15.1334 C   0  0  2  0  0  0  0  0  0  0  0  0
   36.4753   35.6410  -16.5478 N   0  0  0  0  0  0  0  0  0  0  0  0
   35.6891   41.8024  -13.0472 C   0  0  2  0  0  0  0  0  0  0  0  0
   36.8566   41.8118  -13.8850 O   0  0  0  0  0  0  0  0  0  0  0  0
   40.0151   43.8999  -13.9373 C   0  0  1  0  0  0  0  0  0  0  0  0
   39.5652   45.2209  -13.6249 O   0  0  0  0  0  0  0  0  0  0  0  0
   30.9305   35.4298  -16.8418 C   0  0  2  0  0  0  0  0  0  0  0  0
   30.3677   35.7073  -18.1268 O   0  0  0  0  0  0  0  0  0  0  0  0
   35.2055   36.8742  -14.8630 C   0  0  2  0  0  0  0  0  0  0  0  0
   36.0275   41.1612  -11.7106 C   0  0  2  0  0  0  0  0  0  0  0  0
   35.8296   39.7394  -11.8674 O   0  0  0  0  0  0  0  0  0  0  0  0
   40.6093   43.2719  -12.6756 C   0  0  2  0  0  0  0  0  0  0  0  0
   41.2573   42.0469  -13.0302 O   0  0  0  0  0  0  0  0  0  0  0  0
   31.1721   36.7405  -16.0914 C   0  0  2  0  0  0  0  0  0  0  0  0
   31.7717   36.4753  -14.8079 O   0  0  0  0  0  0  0  0  0  0  0  0
   34.9146   37.1251  -13.3848 C   0  0  2  0  0  0  0  0  0  0  0  0
   34.3570   38.4399  -13.2262 O   0  0  0  0  0  0  0  0  0  0  0  0
   35.1087   41.7279  -10.6261 C   0  0  0  0  0  0  0  0  0  0  0  0
   35.6254   41.3708   -9.3422 O   0  0  0  0  0  0  0  0  0  0  0  0
   39.4831   43.0100  -11.6721 C   0  0  1  0  0  0  0  0  0  0  0  0
   38.5392   42.1063  -12.2736 O   0  0  0  0  0  0  0  0  0  0  0  0
   29.8157   37.4250  -15.9040 C   0  0  0  0  0  0  0  0  0  0  0  0
   28.9036   36.5427  -15.1618 O   0  0  0  0  0  0  0  0  0  0  0  0
   36.1904   36.9925  -12.5448 C   0  0  1  0  0  0  0  0  0  0  0  0
   35.8803   37.1426  -11.1576 O   0  0  0  0  0  0  0  0  0  0  0  0
   39.9994   42.3993  -10.3687 C   0  0  0  0  0  0  0  0  0  0  0  0
   40.3182   43.4773   -9.4223 N   0  0  0  0  0  0  0  0  0  0  0  0
  1  2  1  6  0  0  0
  1  7  1  0  0  0  0
  1 30  1  0  0  0  0
  3  4  1  1  0  0  0
  3  9  1  0  0  0  0
  3 39  1  0  0  0  0
  5 10  1  0  0  0  0
  5 26  1  0  0  0  0
  5 32  1  1  0  0  0
  6 12  1  0  0  0  0
  6 36  1  0  0  0  0
  6 19  1  6  0  0  0
  7  8  1  6  0  0  0
  7 14  1  0  0  0  0
  9 16  1  0  0  0  0
 10 11  1  6  0  0  0
 10 18  1  0  0  0  0
 12 13  1  1  0  0  0
 12 20  1  0  0  0  0
 14 15  1  1  0  0  0
 14 22  1  0  0  0  0
 16 17  1  6  0  0  0
 16 24  1  0  0  0  0
 18 19  1  6  0  0  0
 18 25  1  0  0  0  0
 20 21  1  1  0  0  0
 20 27  1  0  0  0  0
 22 23  1  6  0  0  0
 22 29  1  0  0  0  0
 24  2  1  6  0  0  0
 24 31  1  0  0  0  0
 25 26  1  0  0  0  0
 25 33  1  1  0  0  0
 27 28  1  6  0  0  0
 27 35  1  0  0  0  0
 29 30  1  0  0  0  0
 29 37  1  1  0  0  0
 31 32  1  6  0  0  0
 31 39  1  0  0  0  0
 33 34  1  0  0  0  0
 35 36  1  0  0  0  0
 35 41  1  1  0  0  0
 37 38  1  0  0  0  0
 39 40  1  1  0  0  0
 41 42  1  0  0  0  0
M  END
>  <CHROM.1>
-111.54180850,157.97291109,-161.79851345,-178.72526561,81.60248864,-166.50988381
58.42141652,-81.67528562,90.81885957,35.64005928,38.90656022,-13.83957660
-2.31429079,-0.32369418,0.19381995

>  <Name>
3c44_lig

>  <RI>
0

>  <Rbt.Current_Directory>
/home/itssahil/PROJECTS/Mol_Feturizer/New_Systems/rnas/3c44

>  <Rbt.Executable>
rbdock ($Id: //depot/dev/client3/rdock/2013.1/src/exe/rbdock.cxx#4 $)

>  <Rbt.Library>
libRbt.so (2013.1, Build901 2013/11/27)

>  <Rbt.Parameter_File>
/export/apps/rDock/src/rDock_2013.1_src/data/scripts/dock_solv.prm

>  <Rbt.Receptor>
prm/pocket_docking_4.prm

>  <SCORE>
-2.33674

>  <SCORE.INTER>
-9.68155

>  <SCORE.INTER.CONST>
1

>  <SCORE.INTER.POLAR>
-1.31247

>  <SCORE.INTER.ROT>
9

>  <SCORE.INTER.SOLV>
14.7216

>  <SCORE.INTER.VDW>
-16.5867

>  <SCORE.INTER.norm>
-0.230513

>  <SCORE.INTRA>
7.34481

>  <SCORE.INTRA.DIHEDRAL>
3.59043

>  <SCORE.INTRA.DIHEDRAL.0>
14.8538

>  <SCORE.INTRA.POLAR>
0

>  <SCORE.INTRA.POLAR.0>
0

>  <SCORE.INTRA.REPUL>
0

>  <SCORE.INTRA.REPUL.0>
0

>  <SCORE.INTRA.SOLV>
-1.11178

>  <SCORE.INTRA.SOLV.lig_0>
-100.951

>  <SCORE.INTRA.VDW>
6.10549

>  <SCORE.INTRA.VDW.0>
-5.71388

>  <SCORE.INTRA.norm>
0.174876

>  <SCORE.RESTR>
0

>  <SCORE.RESTR.CAVITY>
0

>  <SCORE.RESTR.norm>
0

>  <SCORE.SYSTEM>
0

>  <SCORE.SYSTEM.CONST>
0

>  <SCORE.SYSTEM.DIHEDRAL>
0

>  <SCORE.SYSTEM.SOLV>
0

>  <SCORE.SYSTEM.norm>
0

>  <SCORE.heavy>
42

>  <SCORE.norm>
-0.0556367

>  <RMSD>
5.199

$$$$
3c44_lig
 OpenBabel11021811463D
libRbt.so/2013.1/901 2013/11/27
 42 45  0  0  0  0  0  0  0  0999 V2000
   38.0213   36.1482  -14.0167 C   0  0  2  0  0  0  0  0  0  0  0  0
   38.3296   36.2401  -12.6173 O   0  0  0  0  0  0  0  0  0  0  0  0
   37.9581   39.1819   -9.7194 C   0  0  2  0  0  0  0  0  0  0  0  0
   37.9256   40.3543   -8.8316 N   0  0  0  0  0  0  0  0  0  0  0  0
   36.9066   39.3610  -13.8767 C   0  0  1  0  0  0  0  0  0  0  0  0
   38.4611   42.0053  -16.5261 C   0  0  1  0  0  0  0  0  0  0  0  0
   37.8503   34.6735  -14.3960 C   0  0  2  0  0  0  0  0  0  0  0  0
   36.8498   34.0241  -13.5368 N   0  0  0  0  0  0  0  0  0  0  0  0
   39.3929   38.8786  -10.1605 C   0  0  0  0  0  0  0  0  0  0  0  0
   35.9799   39.6428  -15.0602 C   0  0  2  0  0  0  0  0  0  0  0  0
   36.1710   38.6559  -16.0758 O   0  0  0  0  0  0  0  0  0  0  0  0
   39.4144   41.8039  -17.7086 C   0  0  2  0  0  0  0  0  0  0  0  0
   40.3544   40.7279  -17.3654 N   0  0  0  0  0  0  0  0  0  0  0  0
   39.1739   33.9128  -14.2845 C   0  0  1  0  0  0  0  0  0  0  0  0
   39.0009   32.5883  -14.7974 O   0  0  0  0  0  0  0  0  0  0  0  0
   39.3709   37.5645  -10.9484 C   0  0  2  0  0  0  0  0  0  0  0  0
   40.7247   37.2708  -11.4424 N   0  0  0  0  0  0  0  0  0  0  0  0
   36.5727   40.9656  -15.5415 C   0  0  2  0  0  0  0  0  0  0  0  0
   37.8376   40.7535  -16.1896 O   0  0  0  0  0  0  0  0  0  0  0  0
   40.2101   43.0823  -18.0025 C   0  0  1  0  0  0  0  0  0  0  0  0
   39.3564   44.0844  -18.5611 O   0  0  0  0  0  0  0  0  0  0  0  0
   40.2569   34.6348  -15.0885 C   0  0  2  0  0  0  0  0  0  0  0  0
   41.5149   33.9837  -14.8928 O   0  0  0  0  0  0  0  0  0  0  0  0
   38.4050   37.5947  -12.1395 C   0  0  2  0  0  0  0  0  0  0  0  0
   36.7940   41.6699  -14.2122 C   0  0  2  0  0  0  0  0  0  0  0  0
   37.0358   40.6402  -13.2290 O   0  0  0  0  0  0  0  0  0  0  0  0
   40.8501   43.6364  -16.7285 C   0  0  2  0  0  0  0  0  0  0  0  0
   41.8666   42.7305  -16.2903 O   0  0  0  0  0  0  0  0  0  0  0  0
   40.3527   36.0898  -14.6268 C   0  0  2  0  0  0  0  0  0  0  0  0
   39.0801   36.7471  -14.7870 O   0  0  0  0  0  0  0  0  0  0  0  0
   37.0115   38.1220  -11.8039 C   0  0  2  0  0  0  0  0  0  0  0  0
   36.2942   38.3796  -13.0220 O   0  0  0  0  0  0  0  0  0  0  0  0
   35.5517   42.4892  -13.8562 C   0  0  0  0  0  0  0  0  0  0  0  0
   35.6946   43.0026  -12.5300 O   0  0  0  0  0  0  0  0  0  0  0  0
   39.7699   43.7884  -15.6543 C   0  0  1  0  0  0  0  0  0  0  0  0
   39.2008   42.4928  -15.3953 O   0  0  0  0  0  0  0  0  0  0  0  0
   41.4113   36.7817  -15.4893 C   0  0  0  0  0  0  0  0  0  0  0  0
   41.6724   38.1352  -14.9785 O   0  0  0  0  0  0  0  0  0  0  0  0
   37.0973   39.4031  -10.9658 C   0  0  1  0  0  0  0  0  0  0  0  0
   35.7862   39.8291  -10.5882 O   0  0  0  0  0  0  0  0  0  0  0  0
   40.3271   44.3596  -14.3498 C   0  0  0  0  0  0  0  0  0  0  0  0
   39.2359   44.4916  -13.3744 N   0  0  0  0  0  0  0  0  0  0  0  0
  1  2  1  1  0  0  0
  1  7  1  0  0  0  0
  1 30  1  0  0  0  0
  3  4  1  1  0  0  0
  3  9  1  0  0  0  0
  3 39  1  0  0  0  0
  5 10  1  0  0  0  0
  5 26  1  0  0  0  0
  5 32  1  1  0  0  0
  6 12  1  0  0  0  0
  6 36  1  0  0  0  0
  6 19  1  1  0  0  0
  7  8  1  1  0  0  0
  7 14  1  0  0  0  0
  9 16  1  0  0  0  0
 10 11  1  6  0  0  0
 10 18  1  0  0  0  0
 12 13  1  1  0  0  0
 12 20  1  0  0  0  0
 14 15  1  6  0  0  0
 14 22  1  0  0  0  0
 16 17  1  6  0  0  0
 16 24  1  0  0  0  0
 18 19  1  1  0  0  0
 18 25  1  0  0  0  0
 20 21  1  1  0  0  0
 20 27  1  0  0  0  0
 22 23  1  1  0  0  0
 22 29  1  0  0  0  0
 24  2  1  1  0  0  0
 24 31  1  0  0  0  0
 25 26  1  0  0  0  0
 25 33  1  1  0  0  0
 27 28  1  1  0  0  0
 27 35  1  0  0  0  0
 29 30  1  0  0  0  0
 29 37  1  6  0  0  0
 31 32  1  6  0  0  0
 31 39  1  0  0  0  0
 33 34  1  0  0  0  0
 35 36  1  0  0  0  0
 35 41  1  1  0  0  0
 37 38  1  0  0  0  0
 39 40  1  1  0  0  0
 41 42  1  0  0  0  0
M  END
>  <CHROM.1>
-175.35617335,-174.36649861,-154.66065864,-174.29393978,-152.37472529,172.38076260
-172.71100915,-60.70525724,179.35244594,38.59673038,39.30691079,-14.15039627
-1.59296152,0.99378500,-0.27958454

>  <Name>
3c44_lig

>  <RI>
0

>  <Rbt.Current_Directory>
/home/itssahil/PROJECTS/Mol_Feturizer/New_Systems/rnas/3c44

>  <Rbt.Executable>
rbdock ($Id: //depot/dev/client3/rdock/2013.1/src/exe/rbdock.cxx#4 $)

>  <Rbt.Library>
libRbt.so (2013.1, Build901 2013/11/27)

>  <Rbt.Parameter_File>
/export/apps/rDock/src/rDock_2013.1_src/data/scripts/dock_solv.prm

>  <Rbt.Receptor>
prm/pocket_docking_4.prm

>  <SCORE>
-8.51132

>  <SCORE.INTER>
-6.48683

>  <SCORE.INTER.CONST>
1

>  <SCORE.INTER.POLAR>
0

>  <SCORE.INTER.ROT>
9

>  <SCORE.INTER.SOLV>
13.2223

>  <SCORE.INTER.VDW>
-18.332

>  <SCORE.INTER.norm>
-0.154448

>  <SCORE.INTRA>
-2.02607

>  <SCORE.INTRA.DIHEDRAL>
-7.7022

>  <SCORE.INTRA.DIHEDRAL.0>
14.8538

>  <SCORE.INTRA.POLAR>
0

>  <SCORE.INTRA.POLAR.0>
0

>  <SCORE.INTRA.REPUL>
0

>  <SCORE.INTRA.REPUL.0>
0

>  <SCORE.INTRA.SOLV>
-1.81844

>  <SCORE.INTRA.SOLV.lig_0>
-100.951

>  <SCORE.INTRA.VDW>
2.73424

>  <SCORE.INTRA.VDW.0>
-5.71388

>  <SCORE.INTRA.norm>
-0.0482398

>  <SCORE.RESTR>
0.0015851

>  <SCORE.RESTR.CAVITY>
0.0015851

>  <SCORE.RESTR.norm>
3.77404e-05

>  <SCORE.SYSTEM>
0

>  <SCORE.SYSTEM.CONST>
0

>  <SCORE.SYSTEM.DIHEDRAL>
0

>  <SCORE.SYSTEM.SOLV>
0

>  <SCORE.SYSTEM.norm>
0

>  <SCORE.heavy>
42

>  <SCORE.norm>
-0.20265

>  <RMSD>
5.210

$$$$
3c44_lig
 OpenBabel11021811463D
libRbt.so/2013.1/901 2013/11/27
 42 45  0  0  0  0  0  0  0  0999 V2000
   35.3283   39.2632  -13.5319 C   0  0  2  0  0  0  0  0  0  0  0  0
   36.5167   38.8662  -14.2333 O   0  0  0  0  0  0  0  0  0  0  0  0
   35.4021   34.9506  -13.4486 C   0  0  2  0  0  0  0  0  0  0  0  0
   35.1569   33.5065  -13.3135 N   0  0  0  0  0  0  0  0  0  0  0  0
   38.7441   38.5083  -12.9479 C   0  0  1  0  0  0  0  0  0  0  0  0
   40.3522   42.4538  -12.7985 C   0  0  1  0  0  0  0  0  0  0  0  0
   34.8733   40.6310  -14.0517 C   0  0  2  0  0  0  0  0  0  0  0  0
   34.7056   40.6073  -15.5119 N   0  0  0  0  0  0  0  0  0  0  0  0
   35.2674   35.3864  -14.9105 C   0  0  0  0  0  0  0  0  0  0  0  0
   39.9413   38.9180  -12.0889 C   0  0  2  0  0  0  0  0  0  0  0  0
   39.4900   39.4124  -10.8265 O   0  0  0  0  0  0  0  0  0  0  0  0
   39.4092   43.6392  -13.0294 C   0  0  2  0  0  0  0  0  0  0  0  0
   38.6477   43.3899  -14.2612 N   0  0  0  0  0  0  0  0  0  0  0  0
   35.8742   41.7283  -13.6813 C   0  0  1  0  0  0  0  0  0  0  0  0
   35.3334   43.0019  -14.0457 O   0  0  0  0  0  0  0  0  0  0  0  0
   35.3796   36.9140  -14.9542 C   0  0  2  0  0  0  0  0  0  0  0  0
   35.3161   37.3666  -16.3521 N   0  0  0  0  0  0  0  0  0  0  0  0
   40.4636   40.0895  -12.9182 C   0  0  2  0  0  0  0  0  0  0  0  0
   39.5972   41.2294  -12.7956 O   0  0  0  0  0  0  0  0  0  0  0  0
   40.1936   44.9482  -13.1878 C   0  0  1  0  0  0  0  0  0  0  0  0
   40.7617   45.3443  -11.9367 O   0  0  0  0  0  0  0  0  0  0  0  0
   36.1432   41.6989  -12.1757 C   0  0  2  0  0  0  0  0  0  0  0  0
   37.1595   42.6510  -11.8505 O   0  0  0  0  0  0  0  0  0  0  0  0
   36.6746   37.4393  -14.3221 C   0  0  2  0  0  0  0  0  0  0  0  0
   40.3474   39.5107  -14.3194 C   0  0  2  0  0  0  0  0  0  0  0  0
   39.2488   38.5739  -14.2946 O   0  0  0  0  0  0  0  0  0  0  0  0
   41.3193   44.7939  -14.2119 C   0  0  2  0  0  0  0  0  0  0  0  0
   40.7430   44.6171  -15.5091 O   0  0  0  0  0  0  0  0  0  0  0  0
   36.5991   40.2982  -11.7642 C   0  0  2  0  0  0  0  0  0  0  0  0
   35.5968   39.3250  -12.1187 O   0  0  0  0  0  0  0  0  0  0  0  0
   36.9864   36.8491  -12.9484 C   0  0  2  0  0  0  0  0  0  0  0  0
   38.3374   37.1773  -12.5851 O   0  0  0  0  0  0  0  0  0  0  0  0
   41.6569   38.8126  -14.6930 C   0  0  0  0  0  0  0  0  0  0  0  0
   41.6284   38.4780  -16.0823 O   0  0  0  0  0  0  0  0  0  0  0  0
   42.1718   43.5792  -13.8353 C   0  0  1  0  0  0  0  0  0  0  0  0
   41.3311   42.4120  -13.8490 O   0  0  0  0  0  0  0  0  0  0  0  0
   36.8087   40.3049  -10.2479 C   0  0  0  0  0  0  0  0  0  0  0  0
   36.1016   39.1707   -9.6358 O   0  0  0  0  0  0  0  0  0  0  0  0
   36.7998   35.3272  -12.9505 C   0  0  1  0  0  0  0  0  0  0  0  0
   37.0095   34.8071  -11.6357 O   0  0  0  0  0  0  0  0  0  0  0  0
   43.3371   43.3676  -14.8026 C   0  0  0  0  0  0  0  0  0  0  0  0
   42.8075   43.1030  -16.1476 N   0  0  0  0  0  0  0  0  0  0  0  0
  1  2  1  6  0  0  0
  1  7  1  0  0  0  0
  1 30  1  0  0  0  0
  3  4  1  6  0  0  0
  3  9  1  0  0  0  0
  3 39  1  0  0  0  0
  5 10  1  0  0  0  0
  5 26  1  0  0  0  0
  5 32  1  1  0  0  0
  6 12  1  0  0  0  0
  6 36  1  0  0  0  0
  6 19  1  6  0  0  0
  7  8  1  6  0  0  0
  7 14  1  0  0  0  0
  9 16  1  0  0  0  0
 10 11  1  1  0  0  0
 10 18  1  0  0  0  0
 12 13  1  6  0  0  0
 12 20  1  0  0  0  0
 14 15  1  1  0  0  0
 14 22  1  0  0  0  0
 16 17  1  6  0  0  0
 16 24  1  0  0  0  0
 18 19  1  6  0  0  0
 18 25  1  0  0  0  0
 20 21  1  1  0  0  0
 20 27  1  0  0  0  0
 22 23  1  6  0  0  0
 22 29  1  0  0  0  0
 24  2  1  1  0  0  0
 24 31  1  0  0  0  0
 25 26  1  0  0  0  0
 25 33  1  1  0  0  0
 27 28  1  6  0  0  0
 27 35  1  0  0  0  0
 29 30  1  0  0  0  0
 29 37  1  1  0  0  0
 31 32  1  6  0  0  0
 31 39  1  0  0  0  0
 33 34  1  0  0  0  0
 35 36  1  0  0  0  0
 35 41  1  6  0  0  0
 37 38  1  0  0  0  0
 39 40  1  1  0  0  0
 41 42  1  0  0  0  0
M  END
>  <CHROM.1>
-152.21166729,159.10609968,165.55060889,144.00794824,54.71793192,-169.98307835
129.65274794,39.42350758,-62.20599027,38.24553635,40.07174986,-13.42872753
2.21661353,-0.29081992,-3.00751899

>  <Name>
3c44_lig

>  <RI>
0

>  <Rbt.Current_Directory>
/home/itssahil/PROJECTS/Mol_Feturizer/New_Systems/rnas/3c44

>  <Rbt.Executable>
rbdock ($Id: //depot/dev/client3/rdock/2013.1/src/exe/rbdock.cxx#4 $)

>  <Rbt.Library>
libRbt.so (2013.1, Build901 2013/11/27)

>  <Rbt.Parameter_File>
/export/apps/rDock/src/rDock_2013.1_src/data/scripts/dock_solv.prm

>  <Rbt.Receptor>
prm/pocket_docking_4.prm

>  <SCORE>
-8.33346

>  <SCORE.INTER>
-16.5424

>  <SCORE.INTER.CONST>
1

>  <SCORE.INTER.POLAR>
-2.4842

>  <SCORE.INTER.ROT>
9

>  <SCORE.INTER.SOLV>
13.3272

>  <SCORE.INTER.VDW>
-16.79

>  <SCORE.INTER.norm>
-0.393866

>  <SCORE.INTRA>
8.2089

>  <SCORE.INTRA.DIHEDRAL>
3.33807

>  <SCORE.INTRA.DIHEDRAL.0>
14.8538

>  <SCORE.INTRA.POLAR>
0

>  <SCORE.INTRA.POLAR.0>
0

>  <SCORE.INTRA.REPUL>
0.0996166

>  <SCORE.INTRA.REPUL.0>
0

>  <SCORE.INTRA.SOLV>
3.30694

>  <SCORE.INTRA.SOLV.lig_0>
-100.951

>  <SCORE.INTRA.VDW>
4.38831

>  <SCORE.INTRA.VDW.0>
-5.71388

>  <SCORE.INTRA.norm>
0.19545

>  <SCORE.RESTR>
0

>  <SCORE.RESTR.CAVITY>
0

>  <SCORE.RESTR.norm>
0

>  <SCORE.SYSTEM>
0

>  <SCORE.SYSTEM.CONST>
0

>  <SCORE.SYSTEM.DIHEDRAL>
0

>  <SCORE.SYSTEM.SOLV>
0

>  <SCORE.SYSTEM.norm>
0

>  <SCORE.heavy>
42

>  <SCORE.norm>
-0.198416

>  <RMSD>
5.261

$$$$
3c44_lig
 OpenBabel11021811463D
libRbt.so/2013.1/901 2013/11/27
 42 45  0  0  0  0  0  0  0  0999 V2000
   35.7938   37.5460  -16.0930 C   0  0  2  0  0  0  0  0  0  0  0  0
   34.8020   36.8386  -15.3329 O   0  0  0  0  0  0  0  0  0  0  0  0
   34.9527   33.7028  -12.6249 C   0  0  2  0  0  0  0  0  0  0  0  0
   35.1080   32.4820  -11.8190 N   0  0  0  0  0  0  0  0  0  0  0  0
   37.6132   37.5973  -13.6696 C   0  0  1  0  0  0  0  0  0  0  0  0
   36.9847   40.8580  -11.2029 C   0  0  1  0  0  0  0  0  0  0  0  0
   35.1380   38.7535  -16.7710 C   0  0  2  0  0  0  0  0  0  0  0  0
   34.4501   39.5987  -15.7843 N   0  0  0  0  0  0  0  0  0  0  0  0
   34.2393   33.3916  -13.9437 C   0  0  0  0  0  0  0  0  0  0  0  0
   37.6801   37.7171  -12.1463 C   0  0  2  0  0  0  0  0  0  0  0  0
   36.3601   37.7858  -11.6035 O   0  0  0  0  0  0  0  0  0  0  0  0
   36.0705   42.0156  -11.6177 C   0  0  2  0  0  0  0  0  0  0  0  0
   36.7787   42.8277  -12.6167 N   0  0  0  0  0  0  0  0  0  0  0  0
   34.1339   38.3146  -17.8397 C   0  0  1  0  0  0  0  0  0  0  0  0
   33.6683   39.4661  -18.5500 O   0  0  0  0  0  0  0  0  0  0  0  0
   33.9737   34.7222  -14.6557 C   0  0  2  0  0  0  0  0  0  0  0  0
   33.3430   34.4596  -15.9581 N   0  0  0  0  0  0  0  0  0  0  0  0
   38.3343   39.0920  -12.0252 C   0  0  2  0  0  0  0  0  0  0  0  0
   37.4057   40.1326  -12.3715 O   0  0  0  0  0  0  0  0  0  0  0  0
   35.7201   42.9025  -10.4157 C   0  0  1  0  0  0  0  0  0  0  0  0
   34.8346   42.2142   -9.5287 O   0  0  0  0  0  0  0  0  0  0  0  0
   34.8052   37.3480  -18.8170 C   0  0  2  0  0  0  0  0  0  0  0  0
   33.8369   36.8555  -19.7470 O   0  0  0  0  0  0  0  0  0  0  0  0
   35.2467   35.5479  -14.8797 C   0  0  2  0  0  0  0  0  0  0  0  0
   39.4036   38.9858  -13.1011 C   0  0  2  0  0  0  0  0  0  0  0  0
   38.8937   38.0866  -14.1095 O   0  0  0  0  0  0  0  0  0  0  0  0
   36.9779   43.3020   -9.6424 C   0  0  2  0  0  0  0  0  0  0  0  0
   37.7629   44.1772  -10.4572 O   0  0  0  0  0  0  0  0  0  0  0  0
   35.4163   36.1792  -18.0425 C   0  0  2  0  0  0  0  0  0  0  0  0
   36.3692   36.6665  -17.0772 O   0  0  0  0  0  0  0  0  0  0  0  0
   36.1281   35.6905  -13.6406 C   0  0  2  0  0  0  0  0  0  0  0  0
   37.4077   36.2189  -14.0252 O   0  0  0  0  0  0  0  0  0  0  0  0
   40.6954   38.4448  -12.4845 C   0  0  0  0  0  0  0  0  0  0  0  0
   41.1669   39.3690  -11.5014 O   0  0  0  0  0  0  0  0  0  0  0  0
   37.7711   42.0394   -9.2956 C   0  0  1  0  0  0  0  0  0  0  0  0
   38.1360   41.3807  -10.5213 O   0  0  0  0  0  0  0  0  0  0  0  0
   36.1156   35.2672  -19.0538 C   0  0  0  0  0  0  0  0  0  0  0  0
   35.1183   34.5720  -19.8801 O   0  0  0  0  0  0  0  0  0  0  0  0
   36.3090   34.3396  -12.9382 C   0  0  1  0  0  0  0  0  0  0  0  0
   37.0611   34.5110  -11.7349 O   0  0  0  0  0  0  0  0  0  0  0  0
   39.0387   42.3524   -8.4995 C   0  0  0  0  0  0  0  0  0  0  0  0
   38.6642   42.9279   -7.2002 N   0  0  0  0  0  0  0  0  0  0  0  0
  1  2  1  6  0  0  0
  1  7  1  0  0  0  0
  1 30  1  0  0  0  0
  3  4  1  6  0  0  0
  3  9  1  0  0  0  0
  3 39  1  0  0  0  0
  5 10  1  0  0  0  0
  5 26  1  0  0  0  0
  5 32  1  1  0  0  0
  6 12  1  0  0  0  0
  6 36  1  0  0  0  0
  6 19  1  6  0  0  0
  7  8  1  1  0  0  0
  7 14  1  0  0  0  0
  9 16  1  0  0  0  0
 10 11  1  1  0  0  0
 10 18  1  0  0  0  0
 12 13  1  6  0  0  0
 12 20  1  0  0  0  0
 14 15  1  6  0  0  0
 14 22  1  0  0  0  0
 16 17  1  6  0  0  0
 16 24  1  0  0  0  0
 18 19  1  6  0  0  0
 18 25  1  0  0  0  0
 20 21  1  1  0  0  0
 20 27  1  0  0  0  0
 22 23  1  6  0  0  0
 22 29  1  0  0  0  0
 24  2  1  1  0  0  0
 24 31  1  0  0  0  0
 25 26  1  0  0  0  0
 25 33  1  1  0  0  0
 27 28  1  6  0  0  0
 27 35  1  0  0  0  0
 29 30  1  0  0  0  0
 29 37  1  6  0  0  0
 31 32  1  6  0  0  0
 31 39  1  0  0  0  0
 33 34  1  0  0  0  0
 35 36  1  0  0  0  0
 35 41  1  6  0  0  0
 37 38  1  0  0  0  0
 39 40  1  1  0  0  0
 41 42  1  0  0  0  0
M  END
>  <CHROM.1>
168.16944777,67.13502000,176.26775151,107.70895718,-156.11156457,-62.68934361
-70.52166869,105.91616306,64.27635612,36.43742610,38.26352930,-13.66577665
2.47247594,1.17614435,3.11728247

>  <Name>
3c44_lig

>  <RI>
0

>  <Rbt.Current_Directory>
/home/itssahil/PROJECTS/Mol_Feturizer/New_Systems/rnas/3c44

>  <Rbt.Executable>
rbdock ($Id: //depot/dev/client3/rdock/2013.1/src/exe/rbdock.cxx#4 $)

>  <Rbt.Library>
libRbt.so (2013.1, Build901 2013/11/27)

>  <Rbt.Parameter_File>
/export/apps/rDock/src/rDock_2013.1_src/data/scripts/dock_solv.prm

>  <Rbt.Receptor>
prm/pocket_docking_6.prm

>  <SCORE>
-13.5292

>  <SCORE.INTER>
-14.7366

>  <SCORE.INTER.CONST>
1

>  <SCORE.INTER.POLAR>
-2.50231

>  <SCORE.INTER.ROT>
9

>  <SCORE.INTER.SOLV>
16.2682

>  <SCORE.INTER.VDW>
-16.5061

>  <SCORE.INTER.norm>
-0.350872

>  <SCORE.INTRA>
1.20744

>  <SCORE.INTRA.DIHEDRAL>
1.68864

>  <SCORE.INTRA.DIHEDRAL.0>
14.8538

>  <SCORE.INTRA.POLAR>
0

>  <SCORE.INTRA.POLAR.0>
0

>  <SCORE.INTRA.REPUL>
0

>  <SCORE.INTRA.REPUL.0>
0

>  <SCORE.INTRA.SOLV>
-3.05231

>  <SCORE.INTRA.SOLV.lig_0>
-100.951

>  <SCORE.INTRA.VDW>
1.88927

>  <SCORE.INTRA.VDW.0>
-5.71388

>  <SCORE.INTRA.norm>
0.0287486

>  <SCORE.RESTR>
0

>  <SCORE.RESTR.CAVITY>
0

>  <SCORE.RESTR.norm>
0

>  <SCORE.SYSTEM>
0

>  <SCORE.SYSTEM.CONST>
0

>  <SCORE.SYSTEM.DIHEDRAL>
0

>  <SCORE.SYSTEM.SOLV>
0

>  <SCORE.SYSTEM.norm>
0

>  <SCORE.heavy>
42

>  <SCORE.norm>
-0.322123

>  <RMSD>
5.267

$$$$
3c44_lig
 OpenBabel11021811463D
libRbt.so/2013.1/901 2013/11/27
 42 45  0  0  0  0  0  0  0  0999 V2000
   39.8929   37.7511  -16.5653 C   0  0  2  0  0  0  0  0  0  0  0  0
   38.5108   37.4624  -16.8267 O   0  0  0  0  0  0  0  0  0  0  0  0
   34.9913   39.0597  -15.3262 C   0  0  2  0  0  0  0  0  0  0  0  0
   33.8122   39.5591  -14.6023 N   0  0  0  0  0  0  0  0  0  0  0  0
   38.6838   41.4468  -15.4696 C   0  0  1  0  0  0  0  0  0  0  0  0
   39.8039   44.9847  -13.9949 C   0  0  1  0  0  0  0  0  0  0  0  0
   40.6830   37.6442  -17.8738 C   0  0  2  0  0  0  0  0  0  0  0  0
   40.0961   38.5037  -18.9120 N   0  0  0  0  0  0  0  0  0  0  0  0
   35.1934   37.5648  -15.0625 C   0  0  0  0  0  0  0  0  0  0  0  0
   40.0487   41.9735  -15.0237 C   0  0  2  0  0  0  0  0  0  0  0  0
   40.0636   42.1524  -13.6061 O   0  0  0  0  0  0  0  0  0  0  0  0
   38.7783   45.6868  -13.0988 C   0  0  2  0  0  0  0  0  0  0  0  0
   37.8885   46.4849  -13.9535 N   0  0  0  0  0  0  0  0  0  0  0  0
   40.7233   36.2014  -18.3835 C   0  0  1  0  0  0  0  0  0  0  0  0
   41.5988   36.1248  -19.5127 O   0  0  0  0  0  0  0  0  0  0  0  0
   36.3350   37.0822  -15.9635 C   0  0  2  0  0  0  0  0  0  0  0  0
   36.6002   35.6610  -15.6936 N   0  0  0  0  0  0  0  0  0  0  0  0
   40.0255   43.3463  -15.6928 C   0  0  2  0  0  0  0  0  0  0  0  0
   39.1209   44.2317  -15.0125 O   0  0  0  0  0  0  0  0  0  0  0  0
   39.4673   46.6188  -12.0935 C   0  0  1  0  0  0  0  0  0  0  0  0
   40.1599   45.8576  -11.1007 O   0  0  0  0  0  0  0  0  0  0  0  0
   41.2323   35.2744  -17.2782 C   0  0  2  0  0  0  0  0  0  0  0  0
   41.1643   33.9163  -17.7210 O   0  0  0  0  0  0  0  0  0  0  0  0
   37.6331   37.8746  -15.7643 C   0  0  2  0  0  0  0  0  0  0  0  0
   39.4532   42.9816  -17.0536 C   0  0  2  0  0  0  0  0  0  0  0  0
   38.6025   41.8319  -16.8544 O   0  0  0  0  0  0  0  0  0  0  0  0
   40.4682   47.5392  -12.7940 C   0  0  2  0  0  0  0  0  0  0  0  0
   39.7503   48.4547  -13.6261 O   0  0  0  0  0  0  0  0  0  0  0  0
   40.3729   35.4513  -16.0255 C   0  0  2  0  0  0  0  0  0  0  0  0
   40.4060   36.8247  -15.5898 O   0  0  0  0  0  0  0  0  0  0  0  0
   37.4510   39.3909  -15.7787 C   0  0  2  0  0  0  0  0  0  0  0  0
   38.6517   40.0189  -15.3007 O   0  0  0  0  0  0  0  0  0  0  0  0
   40.5967   42.6591  -18.0179 C   0  0  0  0  0  0  0  0  0  0  0  0
   41.3866   43.8337  -18.2157 O   0  0  0  0  0  0  0  0  0  0  0  0
   41.4231   46.6880  -13.6351 C   0  0  1  0  0  0  0  0  0  0  0  0
   40.6502   45.9681  -14.6116 O   0  0  0  0  0  0  0  0  0  0  0  0
   40.9478   34.5426  -14.9359 C   0  0  0  0  0  0  0  0  0  0  0  0
   40.0688   34.5494  -13.7576 O   0  0  0  0  0  0  0  0  0  0  0  0
   36.2596   39.8082  -14.9084 C   0  0  1  0  0  0  0  0  0  0  0  0
   36.0525   41.2190  -15.0069 O   0  0  0  0  0  0  0  0  0  0  0  0
   42.4733   47.5355  -14.3543 C   0  0  0  0  0  0  0  0  0  0  0  0
   43.3297   46.6589  -15.1653 N   0  0  0  0  0  0  0  0  0  0  0  0
  1  2  1  6  0  0  0
  1  7  1  0  0  0  0
  1 30  1  0  0  0  0
  3  4  1  1  0  0  0
  3  9  1  0  0  0  0
  3 39  1  0  0  0  0
  5 10  1  0  0  0  0
  5 26  1  0  0  0  0
  5 32  1  6  0  0  0
  6 12  1  0  0  0  0
  6 36  1  0  0  0  0
  6 19  1  6  0  0  0
  7  8  1  6  0  0  0
  7 14  1  0  0  0  0
  9 16  1  0  0  0  0
 10 11  1  1  0  0  0
 10 18  1  0  0  0  0
 12 13  1  6  0  0  0
 12 20  1  0  0  0  0
 14 15  1  6  0  0  0
 14 22  1  0  0  0  0
 16 17  1  1  0  0  0
 16 24  1  0  0  0  0
 18 19  1  1  0  0  0
 18 25  1  0  0  0  0
 20 21  1  1  0  0  0
 20 27  1  0  0  0  0
 22 23  1  6  0  0  0
 22 29  1  0  0  0  0
 24  2  1  6  0  0  0
 24 31  1  0  0  0  0
 25 26  1  0  0  0  0
 25 33  1  6  0  0  0
 27 28  1  6  0  0  0
 27 35  1  0  0  0  0
 29 30  1  0  0  0  0
 29 37  1  1  0  0  0
 31 32  1  1  0  0  0
 31 39  1  0  0  0  0
 33 34  1  0  0  0  0
 35 36  1  0  0  0  0
 35 41  1  6  0  0  0
 37 38  1  0  0  0  0
 39 40  1  6  0  0  0
 41 42  1  0  0  0  0
M  END
>  <CHROM.1>
-164.41389484,-175.65714118,-168.01213239,91.69203095,-160.75244526,-64.02706999
-173.31532438,170.44798619,-178.58685277,39.33084362,40.91444032,-15.48247041
-1.67398072,0.41225923,0.29787203

>  <Name>
3c44_lig

>  <RI>
0

>  <Rbt.Current_Directory>
/home/itssahil/PROJECTS/Mol_Feturizer/New_Systems/rnas/3c44

>  <Rbt.Executable>
rbdock ($Id: //depot/dev/client3/rdock/2013.1/src/exe/rbdock.cxx#4 $)

>  <Rbt.Library>
libRbt.so (2013.1, Build901 2013/11/27)

>  <Rbt.Parameter_File>
/export/apps/rDock/src/rDock_2013.1_src/data/scripts/dock_solv.prm

>  <Rbt.Receptor>
prm/pocket_docking_6.prm

>  <SCORE>
-7.96747

>  <SCORE.INTER>
-4.72433

>  <SCORE.INTER.CONST>
1

>  <SCORE.INTER.POLAR>
-1.17459

>  <SCORE.INTER.ROT>
9

>  <SCORE.INTER.SOLV>
15.8377

>  <SCORE.INTER.VDW>
-14.1135

>  <SCORE.INTER.norm>
-0.112484

>  <SCORE.INTRA>
-3.25312

>  <SCORE.INTRA.DIHEDRAL>
-6.54686

>  <SCORE.INTRA.DIHEDRAL.0>
14.8538

>  <SCORE.INTRA.POLAR>
0

>  <SCORE.INTRA.POLAR.0>
0

>  <SCORE.INTRA.REPUL>
0.00761578

>  <SCORE.INTRA.REPUL.0>
0

>  <SCORE.INTRA.SOLV>
-4.46433

>  <SCORE.INTRA.SOLV.lig_0>
-100.951

>  <SCORE.INTRA.VDW>
2.2144

>  <SCORE.INTRA.VDW.0>
-5.71388

>  <SCORE.INTRA.norm>
-0.0774553

>  <SCORE.RESTR>
0.00998261

>  <SCORE.RESTR.CAVITY>
0.00998261

>  <SCORE.RESTR.norm>
0.000237681

>  <SCORE.SYSTEM>
0

>  <SCORE.SYSTEM.CONST>
0

>  <SCORE.SYSTEM.DIHEDRAL>
0

>  <SCORE.SYSTEM.SOLV>
0

>  <SCORE.SYSTEM.norm>
0

>  <SCORE.heavy>
42

>  <SCORE.norm>
-0.189702

>  <RMSD>
5.277

$$$$
3c44_lig
 OpenBabel11021811463D
libRbt.so/2013.1/901 2013/11/27
 42 45  0  0  0  0  0  0  0  0999 V2000
   36.2616   35.0980  -17.0345 C   0  0  2  0  0  0  0  0  0  0  0  0
   36.1490   36.0911  -18.0654 O   0  0  0  0  0  0  0  0  0  0  0  0
   35.4613   40.1734  -17.8376 C   0  0  2  0  0  0  0  0  0  0  0  0
   35.0248   41.5690  -17.6779 N   0  0  0  0  0  0  0  0  0  0  0  0
   36.9726   38.0587  -14.3590 C   0  0  1  0  0  0  0  0  0  0  0  0
   38.3097   39.4466  -10.5557 C   0  0  1  0  0  0  0  0  0  0  0  0
   37.2897   34.0457  -17.4631 C   0  0  2  0  0  0  0  0  0  0  0  0
   38.5729   34.6758  -17.8055 N   0  0  0  0  0  0  0  0  0  0  0  0
   34.4647   39.3913  -18.6980 C   0  0  0  0  0  0  0  0  0  0  0  0
   36.8555   37.2668  -13.0558 C   0  0  2  0  0  0  0  0  0  0  0  0
   35.6481   37.6187  -12.3775 O   0  0  0  0  0  0  0  0  0  0  0  0
   37.9097   38.3181   -9.5995 C   0  0  2  0  0  0  0  0  0  0  0  0
   36.4460   38.1902   -9.6233 N   0  0  0  0  0  0  0  0  0  0  0  0
   36.7926   33.2390  -18.6653 C   0  0  1  0  0  0  0  0  0  0  0  0
   37.7086   32.1715  -18.9277 O   0  0  0  0  0  0  0  0  0  0  0  0
   35.0572   38.0010  -18.9509 C   0  0  2  0  0  0  0  0  0  0  0  0
   34.0989   37.1972  -19.7246 N   0  0  0  0  0  0  0  0  0  0  0  0
   38.0393   37.8549  -12.2906 C   0  0  2  0  0  0  0  0  0  0  0  0
   37.7540   39.1954  -11.8585 O   0  0  0  0  0  0  0  0  0  0  0  0
   38.3573   38.6239   -8.1641 C   0  0  1  0  0  0  0  0  0  0  0  0
   39.7798   38.5279   -8.0537 O   0  0  0  0  0  0  0  0  0  0  0  0
   35.4076   32.6622  -18.3665 C   0  0  2  0  0  0  0  0  0  0  0  0
   34.9005   32.0031  -19.5299 O   0  0  0  0  0  0  0  0  0  0  0  0
   35.4022   37.2511  -17.6582 C   0  0  2  0  0  0  0  0  0  0  0  0
   39.0905   37.8874  -13.3888 C   0  0  2  0  0  0  0  0  0  0  0  0
   38.3850   38.0555  -14.6375 O   0  0  0  0  0  0  0  0  0  0  0  0
   37.9251   40.0288   -7.7411 C   0  0  2  0  0  0  0  0  0  0  0  0
   36.4989   40.0617   -7.6364 O   0  0  0  0  0  0  0  0  0  0  0  0
   34.4596   33.7914  -17.9600 C   0  0  2  0  0  0  0  0  0  0  0  0
   34.9782   34.4857  -16.8084 O   0  0  0  0  0  0  0  0  0  0  0  0
   36.2006   38.0743  -16.6495 C   0  0  2  0  0  0  0  0  0  0  0  0
   36.2158   37.3925  -15.3848 O   0  0  0  0  0  0  0  0  0  0  0  0
   39.8817   36.5777  -13.3763 C   0  0  0  0  0  0  0  0  0  0  0  0
   41.0042   36.7012  -14.2524 O   0  0  0  0  0  0  0  0  0  0  0  0
   38.4077   41.0349   -8.7893 C   0  0  1  0  0  0  0  0  0  0  0  0
   37.8103   40.6963  -10.0534 O   0  0  0  0  0  0  0  0  0  0  0  0
   33.1047   33.1623  -17.6254 C   0  0  0  0  0  0  0  0  0  0  0  0
   32.4668   32.6573  -18.8498 O   0  0  0  0  0  0  0  0  0  0  0  0
   35.5960   39.4735  -16.4829 C   0  0  1  0  0  0  0  0  0  0  0  0
   36.4081   40.2556  -15.6043 O   0  0  0  0  0  0  0  0  0  0  0  0
   38.0324   42.4725   -8.4278 C   0  0  0  0  0  0  0  0  0  0  0  0
   38.4671   43.3717   -9.5059 N   0  0  0  0  0  0  0  0  0  0  0  0
  1  2  1  6  0  0  0
  1  7  1  0  0  0  0
  1 30  1  0  0  0  0
  3  4  1  1  0  0  0
  3  9  1  0  0  0  0
  3 39  1  0  0  0  0
  5 10  1  0  0  0  0
  5 26  1  0  0  0  0
  5 32  1  6  0  0  0
  6 12  1  0  0  0  0
  6 36  1  0  0  0  0
  6 19  1  6  0  0  0
  7  8  1  6  0  0  0
  7 14  1  0  0  0  0
  9 16  1  0  0  0  0
 10 11  1  1  0  0  0
 10 18  1  0  0  0  0
 12 13  1  1  0  0  0
 12 20  1  0  0  0  0
 14 15  1  1  0  0  0
 14 22  1  0  0  0  0
 16 17  1  1  0  0  0
 16 24  1  0  0  0  0
 18 19  1  6  0  0  0
 18 25  1  0  0  0  0
 20 21  1  6  0  0  0
 20 27  1  0  0  0  0
 22 23  1  6  0  0  0
 22 29  1  0  0  0  0
 24  2  1  6  0  0  0
 24 31  1  0  0  0  0
 25 26  1  0  0  0  0
 25 33  1  6  0  0  0
 27 28  1  6  0  0  0
 27 35  1  0  0  0  0
 29 30  1  0  0  0  0
 29 37  1  1  0  0  0
 31 32  1  1  0  0  0
 31 39  1  0  0  0  0
 33 34  1  0  0  0  0
 35 36  1  0  0  0  0
 35 41  1  1  0  0  0
 37 38  1  0  0  0  0
 39 40  1  1  0  0  0
 41 42  1  0  0  0  0
M  END
>  <CHROM.1>
-168.98423076,177.45747855,-49.76933553,142.57317166,-164.87969067,-170.40000938
-69.72199544,178.42038981,-177.23365864,36.75367543,37.42295732,-14.50972736
-2.18346674,-1.10736303,0.46475719

>  <Name>
3c44_lig

>  <RI>
0

>  <Rbt.Current_Directory>
/home/itssahil/PROJECTS/Mol_Feturizer/New_Systems/rnas/3c44

>  <Rbt.Executable>
rbdock ($Id: //depot/dev/client3/rdock/2013.1/src/exe/rbdock.cxx#4 $)

>  <Rbt.Library>
libRbt.so (2013.1, Build901 2013/11/27)

>  <Rbt.Parameter_File>
/export/apps/rDock/src/rDock_2013.1_src/data/scripts/dock_solv.prm

>  <Rbt.Receptor>
prm/pocket_docking_7.prm

>  <SCORE>
-9.92813

>  <SCORE.INTER>
-10.1376

>  <SCORE.INTER.CONST>
1

>  <SCORE.INTER.POLAR>
-1.43529

>  <SCORE.INTER.ROT>
9

>  <SCORE.INTER.SOLV>
18.1049

>  <SCORE.INTER.VDW>
-17.609

>  <SCORE.INTER.norm>
-0.241371

>  <SCORE.INTRA>
0.209435

>  <SCORE.INTRA.DIHEDRAL>
-6.95963

>  <SCORE.INTRA.DIHEDRAL.0>
14.8538

>  <SCORE.INTRA.POLAR>
0

>  <SCORE.INTRA.POLAR.0>
0

>  <SCORE.INTRA.REPUL>
0.0676472

>  <SCORE.INTRA.REPUL.0>
0

>  <SCORE.INTRA.SOLV>
-3.12652

>  <SCORE.INTRA.SOLV.lig_0>
-100.951

>  <SCORE.INTRA.VDW>
4.91427

>  <SCORE.INTRA.VDW.0>
-5.71388

>  <SCORE.INTRA.norm>
0.00498656

>  <SCORE.RESTR>
0

>  <SCORE.RESTR.CAVITY>
0

>  <SCORE.RESTR.norm>
0

>  <SCORE.SYSTEM>
0

>  <SCORE.SYSTEM.CONST>
0

>  <SCORE.SYSTEM.DIHEDRAL>
0

>  <SCORE.SYSTEM.SOLV>
0

>  <SCORE.SYSTEM.norm>
0

>  <SCORE.heavy>
42

>  <SCORE.norm>
-0.236384

>  <RMSD>
5.337

$$$$
3c44_lig
 OpenBabel11021811463D
libRbt.so/2013.1/901 2013/11/27
 42 45  0  0  0  0  0  0  0  0999 V2000
   35.2098   33.7453  -16.7347 C   0  0  2  0  0  0  0  0  0  0  0  0
   35.8784   35.0033  -16.5560 O   0  0  0  0  0  0  0  0  0  0  0  0
   38.1212   33.1361  -13.6110 C   0  0  2  0  0  0  0  0  0  0  0  0
   39.0360   32.6521  -12.5657 N   0  0  0  0  0  0  0  0  0  0  0  0
   36.4128   36.8864  -13.0741 C   0  0  1  0  0  0  0  0  0  0  0  0
   39.5705   39.5264  -11.9975 C   0  0  1  0  0  0  0  0  0  0  0  0
   34.5564   33.7177  -18.1204 C   0  0  2  0  0  0  0  0  0  0  0  0
   35.5436   34.0054  -19.1710 N   0  0  0  0  0  0  0  0  0  0  0  0
   38.9012   33.5446  -14.8640 C   0  0  0  0  0  0  0  0  0  0  0  0
   37.2932   37.5854  -14.1111 C   0  0  2  0  0  0  0  0  0  0  0  0
   38.4439   36.7866  -14.3928 O   0  0  0  0  0  0  0  0  0  0  0  0
   40.5430   39.1134  -10.8878 C   0  0  2  0  0  0  0  0  0  0  0  0
   39.7582   38.6411   -9.7388 N   0  0  0  0  0  0  0  0  0  0  0  0
   33.4136   34.7315  -18.2173 C   0  0  1  0  0  0  0  0  0  0  0  0
   32.7357   34.5595  -19.4656 O   0  0  0  0  0  0  0  0  0  0  0  0
   37.8829   33.8868  -15.9566 C   0  0  2  0  0  0  0  0  0  0  0  0
   38.5951   34.3438  -17.1595 N   0  0  0  0  0  0  0  0  0  0  0  0
   37.7269   38.8048  -13.3000 C   0  0  2  0  0  0  0  0  0  0  0  0
   38.6809   38.4349  -12.2910 O   0  0  0  0  0  0  0  0  0  0  0  0
   41.4104   40.2980  -10.4424 C   0  0  1  0  0  0  0  0  0  0  0  0
   42.3534   40.6376  -11.4624 O   0  0  0  0  0  0  0  0  0  0  0  0
   32.4289   34.5154  -17.0667 C   0  0  2  0  0  0  0  0  0  0  0  0
   31.4239   35.5322  -17.0971 O   0  0  0  0  0  0  0  0  0  0  0  0
   36.8857   34.9712  -15.5297 C   0  0  2  0  0  0  0  0  0  0  0  0
   36.4096   39.1817  -12.6406 C   0  0  2  0  0  0  0  0  0  0  0  0
   35.6549   37.9602  -12.4867 O   0  0  0  0  0  0  0  0  0  0  0  0
   40.5501   41.5261  -10.1399 C   0  0  2  0  0  0  0  0  0  0  0  0
   39.7613   41.2625   -8.9761 O   0  0  0  0  0  0  0  0  0  0  0  0
   33.1780   34.5713  -15.7345 C   0  0  2  0  0  0  0  0  0  0  0  0
   34.2172   33.5730  -15.7061 O   0  0  0  0  0  0  0  0  0  0  0  0
   36.2486   34.7342  -14.1621 C   0  0  2  0  0  0  0  0  0  0  0  0
   35.5709   35.9287  -13.7395 O   0  0  0  0  0  0  0  0  0  0  0  0
   35.6633   40.1811  -13.5270 C   0  0  0  0  0  0  0  0  0  0  0  0
   34.2907   40.2233  -13.1306 O   0  0  0  0  0  0  0  0  0  0  0  0
   39.6483   41.8109  -11.3438 C   0  0  1  0  0  0  0  0  0  0  0  0
   38.8082   40.6642  -11.5640 O   0  0  0  0  0  0  0  0  0  0  0  0
   32.1637   34.3027  -14.6199 C   0  0  0  0  0  0  0  0  0  0  0  0
   31.1513   35.3682  -14.5915 O   0  0  0  0  0  0  0  0  0  0  0  0
   37.3067   34.3379  -13.1256 C   0  0  1  0  0  0  0  0  0  0  0  0
   36.6793   34.0346  -11.8777 O   0  0  0  0  0  0  0  0  0  0  0  0
   38.7674   43.0423  -11.1288 C   0  0  0  0  0  0  0  0  0  0  0  0
   37.9638   43.2791  -12.3362 N   0  0  0  0  0  0  0  0  0  0  0  0
  1  2  1  1  0  0  0
  1  7  1  0  0  0  0
  1 30  1  0  0  0  0
  3  4  1  1  0  0  0
  3  9  1  0  0  0  0
  3 39  1  0  0  0  0
  5 10  1  0  0  0  0
  5 26  1  0  0  0  0
  5 32  1  6  0  0  0
  6 12  1  0  0  0  0
  6 36  1  0  0  0  0
  6 19  1  1  0  0  0
  7  8  1  6  0  0  0
  7 14  1  0  0  0  0
  9 16  1  0  0  0  0
 10 11  1  1  0  0  0
 10 18  1  0  0  0  0
 12 13  1  1  0  0  0
 12 20  1  0  0  0  0
 14 15  1  6  0  0  0
 14 22  1  0  0  0  0
 16 17  1  6  0  0  0
 16 24  1  0  0  0  0
 18 19  1  1  0  0  0
 18 25  1  0  0  0  0
 20 21  1  6  0  0  0
 20 27  1  0  0  0  0
 22 23  1  1  0  0  0
 22 29  1  0  0  0  0
 24  2  1  6  0  0  0
 24 31  1  0  0  0  0
 25 26  1  0  0  0  0
 25 33  1  6  0  0  0
 27 28  1  1  0  0  0
 27 35  1  0  0  0  0
 29 30  1  0  0  0  0
 29 37  1  1  0  0  0
 31 32  1  1  0  0  0
 31 39  1  0  0  0  0
 33 34  1  0  0  0  0
 35 36  1  0  0  0  0
 35 41  1  1  0  0  0
 37 38  1  0  0  0  0
 39 40  1  1  0  0  0
 41 42  1  0  0  0  0
M  END
>  <CHROM.1>
-159.71812690,74.74322943,178.16309012,150.89002618,58.70530680,162.66582558
-63.59532677,-85.31590857,178.20269846,36.78787890,36.94709937,-13.91204959
-2.20695813,-0.42770172,0.42531295

>  <Name>
3c44_lig

>  <RI>
224

>  <Rbt.Current_Directory>
/home/itssahil/PROJECTS/Mol_Feturizer/New_Systems/rnas/3c44

>  <Rbt.Executable>
rbdock ($Id: //depot/dev/client3/rdock/2013.1/src/exe/rbdock.cxx#4 $)

>  <Rbt.Library>
libRbt.so (2013.1, Build901 2013/11/27)

>  <Rbt.Parameter_File>
/export/apps/rDock/src/rDock_2013.1_src/data/scripts/dock_solv.prm

>  <Rbt.Receptor>
prm/pocket_docking_8.prm

>  <SCORE>
-13.3874

>  <SCORE.INTER>
-16.3079

>  <SCORE.INTER.CONST>
1

>  <SCORE.INTER.POLAR>
-2.45648

>  <SCORE.INTER.ROT>
9

>  <SCORE.INTER.SOLV>
15.1798

>  <SCORE.INTER.VDW>
-17.3436

>  <SCORE.INTER.norm>
-0.388282

>  <SCORE.INTRA>
2.92042

>  <SCORE.INTRA.DIHEDRAL>
-4.56245

>  <SCORE.INTRA.DIHEDRAL.0>
14.8538

>  <SCORE.INTRA.POLAR>
0

>  <SCORE.INTRA.POLAR.0>
0

>  <SCORE.INTRA.REPUL>
0

>  <SCORE.INTRA.REPUL.0>
0

>  <SCORE.INTRA.SOLV>
-1.58696

>  <SCORE.INTRA.SOLV.lig_0>
-100.951

>  <SCORE.INTRA.VDW>
5.99513

>  <SCORE.INTRA.VDW.0>
-5.71388

>  <SCORE.INTRA.norm>
0.0695339

>  <SCORE.RESTR>
0

>  <SCORE.RESTR.CAVITY>
0

>  <SCORE.RESTR.norm>
0

>  <SCORE.SYSTEM>
0

>  <SCORE.SYSTEM.CONST>
0

>  <SCORE.SYSTEM.DIHEDRAL>
0

>  <SCORE.SYSTEM.SOLV>
0

>  <SCORE.SYSTEM.norm>
0

>  <SCORE.heavy>
42

>  <SCORE.norm>
-0.318748

>  <RMSD>
5.357

$$$$
3c44_lig
 OpenBabel11021811463D
libRbt.so/2013.1/901 2013/11/27
 42 45  0  0  0  0  0  0  0  0999 V2000
   32.8744   36.8583  -16.2067 C   0  0  2  0  0  0  0  0  0  0  0  0
   33.1479   36.4336  -14.8626 O   0  0  0  0  0  0  0  0  0  0  0  0
   36.5188   35.5034  -12.6352 C   0  0  2  0  0  0  0  0  0  0  0  0
   37.8212   35.2992  -11.9825 N   0  0  0  0  0  0  0  0  0  0  0  0
   35.2918   39.4105  -13.4984 C   0  0  1  0  0  0  0  0  0  0  0  0
   37.9205   42.1276  -15.1122 C   0  0  1  0  0  0  0  0  0  0  0  0
   31.4607   37.4459  -16.2684 C   0  0  2  0  0  0  0  0  0  0  0  0
   31.2947   38.5171  -15.2755 N   0  0  0  0  0  0  0  0  0  0  0  0
   36.5942   35.1306  -14.1186 C   0  0  0  0  0  0  0  0  0  0  0  0
   34.6416   40.6068  -14.1949 C   0  0  2  0  0  0  0  0  0  0  0  0
   34.3430   40.2780  -15.5530 O   0  0  0  0  0  0  0  0  0  0  0  0
   38.7510   41.9503  -16.3876 C   0  0  2  0  0  0  0  0  0  0  0  0
   39.1501   40.5396  -16.4860 N   0  0  0  0  0  0  0  0  0  0  0  0
   30.3994   36.3700  -16.0248 C   0  0  1  0  0  0  0  0  0  0  0  0
   29.1015   36.9292  -16.2483 O   0  0  0  0  0  0  0  0  0  0  0  0
   35.1767   35.2173  -14.6941 C   0  0  2  0  0  0  0  0  0  0  0  0
   35.2179   34.9249  -16.1348 N   0  0  0  0  0  0  0  0  0  0  0  0
   35.8137   41.5859  -14.1718 C   0  0  2  0  0  0  0  0  0  0  0  0
   36.8242   41.1964  -15.1164 O   0  0  0  0  0  0  0  0  0  0  0  0
   40.0135   42.8214  -16.3519 C   0  0  1  0  0  0  0  0  0  0  0  0
   39.6708   44.2030  -16.4886 O   0  0  0  0  0  0  0  0  0  0  0  0
   30.6216   35.1960  -16.9802 C   0  0  2  0  0  0  0  0  0  0  0  0
   29.6980   34.1475  -16.6758 O   0  0  0  0  0  0  0  0  0  0  0  0
   34.5272   36.5911  -14.4861 C   0  0  2  0  0  0  0  0  0  0  0  0
   36.3285   41.3684  -12.7577 C   0  0  2  0  0  0  0  0  0  0  0  0
   36.0190   40.0024  -12.4059 O   0  0  0  0  0  0  0  0  0  0  0  0
   40.7753   42.6316  -15.0391 C   0  0  2  0  0  0  0  0  0  0  0  0
   41.3105   41.3056  -15.0029 O   0  0  0  0  0  0  0  0  0  0  0  0
   32.0537   34.6798  -16.8326 C   0  0  2  0  0  0  0  0  0  0  0  0
   32.9940   35.7380  -17.1033 O   0  0  0  0  0  0  0  0  0  0  0  0
   34.6346   37.1262  -13.0597 C   0  0  2  0  0  0  0  0  0  0  0  0
   34.2632   38.5142  -13.0430 O   0  0  0  0  0  0  0  0  0  0  0  0
   35.6397   42.3503  -11.8076 C   0  0  0  0  0  0  0  0  0  0  0  0
   36.2392   42.2478  -10.5141 O   0  0  0  0  0  0  0  0  0  0  0  0
   39.8131   42.8520  -13.8689 C   0  0  1  0  0  0  0  0  0  0  0  0
   38.7512   41.8864  -13.9653 O   0  0  0  0  0  0  0  0  0  0  0  0
   32.2429   33.5416  -17.8386 C   0  0  0  0  0  0  0  0  0  0  0  0
   33.5163   32.8517  -17.5862 O   0  0  0  0  0  0  0  0  0  0  0  0
   36.0588   36.9586  -12.5170 C   0  0  1  0  0  0  0  0  0  0  0  0
   36.1155   37.3827  -11.1532 O   0  0  0  0  0  0  0  0  0  0  0  0
   40.5053   42.7004  -12.5138 C   0  0  0  0  0  0  0  0  0  0  0  0
   39.5071   42.8314  -11.4433 N   0  0  0  0  0  0  0  0  0  0  0  0
  1  2  1  1  0  0  0
  1  7  1  0  0  0  0
  1 30  1  0  0  0  0
  3  4  1  6  0  0  0
  3  9  1  0  0  0  0
  3 39  1  0  0  0  0
  5 10  1  0  0  0  0
  5 26  1  0  0  0  0
  5 32  1  1  0  0  0
  6 12  1  0  0  0  0
  6 36  1  0  0  0  0
  6 19  1  6  0  0  0
  7  8  1  1  0  0  0
  7 14  1  0  0  0  0
  9 16  1  0  0  0  0
 10 11  1  6  0  0  0
 10 18  1  0  0  0  0
 12 13  1  1  0  0  0
 12 20  1  0  0  0  0
 14 15  1  6  0  0  0
 14 22  1  0  0  0  0
 16 17  1  6  0  0  0
 16 24  1  0  0  0  0
 18 19  1  6  0  0  0
 18 25  1  0  0  0  0
 20 21  1  1  0  0  0
 20 27  1  0  0  0  0
 22 23  1  1  0  0  0
 22 29  1  0  0  0  0
 24  2  1  1  0  0  0
 24 31  1  0  0  0  0
 25 26  1  0  0  0  0
 25 33  1  1  0  0  0
 27 28  1  6  0  0  0
 27 35  1  0  0  0  0
 29 30  1  0  0  0  0
 29 37  1  6  0  0  0
 31 32  1  6  0  0  0
 31 39  1  0  0  0  0
 33 34  1  0  0  0  0
 35 36  1  0  0  0  0
 35 41  1  1  0  0  0
 37 38  1  0  0  0  0
 39 40  1  1  0  0  0
 41 42  1  0  0  0  0
M  END
>  <CHROM.1>
-146.52141500,147.39794849,-162.63394942,179.11408146,-97.20994506,-173.29166721
-170.19270405,-79.00001146,-176.08046228,35.54671690,38.72104101,-14.62651183
2.60776986,0.63794035,2.65487636

>  <Name>
3c44_lig

>  <RI>
0

>  <Rbt.Current_Directory>
/home/itssahil/PROJECTS/Mol_Feturizer/New_Systems/rnas/3c44

>  <Rbt.Executable>
rbdock ($Id: //depot/dev/client3/rdock/2013.1/src/exe/rbdock.cxx#4 $)

>  <Rbt.Library>
libRbt.so (2013.1, Build901 2013/11/27)

>  <Rbt.Parameter_File>
/export/apps/rDock/src/rDock_2013.1_src/data/scripts/dock_solv.prm

>  <Rbt.Receptor>
prm/pocket_docking_5.prm

>  <SCORE>
-4.41436

>  <SCORE.INTER>
-8.49268

>  <SCORE.INTER.CONST>
1

>  <SCORE.INTER.POLAR>
-1.34967

>  <SCORE.INTER.ROT>
9

>  <SCORE.INTER.SOLV>
17.8707

>  <SCORE.INTER.VDW>
-16.7198

>  <SCORE.INTER.norm>
-0.202207

>  <SCORE.INTRA>
4.07832

>  <SCORE.INTRA.DIHEDRAL>
2.30345

>  <SCORE.INTRA.DIHEDRAL.0>
14.8538

>  <SCORE.INTRA.POLAR>
0

>  <SCORE.INTRA.POLAR.0>
0

>  <SCORE.INTRA.REPUL>
0

>  <SCORE.INTRA.REPUL.0>
0

>  <SCORE.INTRA.SOLV>
1.37898

>  <SCORE.INTRA.SOLV.lig_0>
-100.951

>  <SCORE.INTRA.VDW>
2.23711

>  <SCORE.INTRA.VDW.0>
-5.71388

>  <SCORE.INTRA.norm>
0.0971029

>  <SCORE.RESTR>
0

>  <SCORE.RESTR.CAVITY>
0

>  <SCORE.RESTR.norm>
0

>  <SCORE.SYSTEM>
0

>  <SCORE.SYSTEM.CONST>
0

>  <SCORE.SYSTEM.DIHEDRAL>
0

>  <SCORE.SYSTEM.SOLV>
0

>  <SCORE.SYSTEM.norm>
0

>  <SCORE.heavy>
42

>  <SCORE.norm>
-0.105104

>  <RMSD>
5.393

$$$$
3c44_lig
 OpenBabel11021811463D
libRbt.so/2013.1/901 2013/11/27
 42 45  0  0  0  0  0  0  0  0999 V2000
   34.7537   35.3609  -15.5391 C   0  0  2  0  0  0  0  0  0  0  0  0
   35.7454   34.6078  -16.2541 O   0  0  0  0  0  0  0  0  0  0  0  0
   39.8770   34.2873  -16.3819 C   0  0  2  0  0  0  0  0  0  0  0  0
   41.3448   34.3840  -16.3846 N   0  0  0  0  0  0  0  0  0  0  0  0
   37.2119   36.1098  -13.4524 C   0  0  1  0  0  0  0  0  0  0  0  0
   36.5241   40.0681  -12.1871 C   0  0  1  0  0  0  0  0  0  0  0  0
   33.4180   34.6125  -15.5974 C   0  0  2  0  0  0  0  0  0  0  0  0
   33.5673   33.2350  -15.1063 N   0  0  0  0  0  0  0  0  0  0  0  0
   39.2690   35.2801  -17.3768 C   0  0  0  0  0  0  0  0  0  0  0  0
   36.7264   36.3698  -12.0255 C   0  0  2  0  0  0  0  0  0  0  0  0
   35.2987   36.3321  -11.9812 O   0  0  0  0  0  0  0  0  0  0  0  0
   35.4812   40.9576  -12.8719 C   0  0  2  0  0  0  0  0  0  0  0  0
   35.5958   40.7683  -14.3246 N   0  0  0  0  0  0  0  0  0  0  0  0
   32.8614   34.5772  -17.0229 C   0  0  1  0  0  0  0  0  0  0  0  0
   31.5471   34.0120  -17.0018 O   0  0  0  0  0  0  0  0  0  0  0  0
   37.7605   35.0172  -17.4353 C   0  0  2  0  0  0  0  0  0  0  0  0
   37.1311   35.9942  -18.3367 N   0  0  0  0  0  0  0  0  0  0  0  0
   37.1862   37.8165  -11.8572 C   0  0  2  0  0  0  0  0  0  0  0  0
   36.3618   38.7079  -12.6260 O   0  0  0  0  0  0  0  0  0  0  0  0
   35.7157   42.4381  -12.5449 C   0  0  1  0  0  0  0  0  0  0  0  0
   35.3874   42.7057  -11.1790 O   0  0  0  0  0  0  0  0  0  0  0  0
   32.7986   35.9962  -17.5910 C   0  0  2  0  0  0  0  0  0  0  0  0
   32.3830   35.9483  -18.9584 O   0  0  0  0  0  0  0  0  0  0  0  0
   37.0824   35.1020  -16.0622 C   0  0  2  0  0  0  0  0  0  0  0  0
   38.5715   37.7412  -12.4794 C   0  0  2  0  0  0  0  0  0  0  0  0
   38.5229   36.7040  -13.4830 O   0  0  0  0  0  0  0  0  0  0  0  0
   37.1745   42.8299  -12.7856 C   0  0  2  0  0  0  0  0  0  0  0  0
   37.4422   42.7747  -14.1896 O   0  0  0  0  0  0  0  0  0  0  0  0
   34.1790   36.6477  -17.4947 C   0  0  2  0  0  0  0  0  0  0  0  0
   34.6237   36.6701  -16.1240 O   0  0  0  0  0  0  0  0  0  0  0  0
   37.7914   34.3139  -14.9628 C   0  0  2  0  0  0  0  0  0  0  0  0
   37.2537   34.6911  -13.6847 O   0  0  0  0  0  0  0  0  0  0  0  0
   39.5999   37.4100  -11.3958 C   0  0  0  0  0  0  0  0  0  0  0  0
   39.6298   38.4719  -10.4395 O   0  0  0  0  0  0  0  0  0  0  0  0
   38.0826   41.8565  -12.0294 C   0  0  1  0  0  0  0  0  0  0  0  0
   37.8412   40.5289  -12.5280 O   0  0  0  0  0  0  0  0  0  0  0  0
   34.0558   38.0773  -18.0283 C   0  0  0  0  0  0  0  0  0  0  0  0
   33.3495   38.9206  -17.0533 O   0  0  0  0  0  0  0  0  0  0  0  0
   39.3027   34.5710  -14.9915 C   0  0  1  0  0  0  0  0  0  0  0  0
   39.9558   33.7571  -14.0147 O   0  0  0  0  0  0  0  0  0  0  0  0
   39.5641   42.1939  -12.2021 C   0  0  0  0  0  0  0  0  0  0  0  0
   39.8521   43.4672  -11.5273 N   0  0  0  0  0  0  0  0  0  0  0  0
  1  2  1  6  0  0  0
  1  7  1  0  0  0  0
  1 30  1  0  0  0  0
  3  4  1  1  0  0  0
  3  9  1  0  0  0  0
  3 39  1  0  0  0  0
  5 10  1  0  0  0  0
  5 26  1  0  0  0  0
  5 32  1  1  0  0  0
  6 12  1  0  0  0  0
  6 36  1  0  0  0  0
  6 19  1  6  0  0  0
  7  8  1  6  0  0  0
  7 14  1  0  0  0  0
  9 16  1  0  0  0  0
 10 11  1  6  0  0  0
 10 18  1  0  0  0  0
 12 13  1  6  0  0  0
 12 20  1  0  0  0  0
 14 15  1  1  0  0  0
 14 22  1  0  0  0  0
 16 17  1  6  0  0  0
 16 24  1  0  0  0  0
 18 19  1  6  0  0  0
 18 25  1  0  0  0  0
 20 21  1  1  0  0  0
 20 27  1  0  0  0  0
 22 23  1  6  0  0  0
 22 29  1  0  0  0  0
 24  2  1  6  0  0  0
 24 31  1  0  0  0  0
 25 26  1  0  0  0  0
 25 33  1  1  0  0  0
 27 28  1  6  0  0  0
 27 35  1  0  0  0  0
 29 30  1  0  0  0  0
 29 37  1  1  0  0  0
 31 32  1  1  0  0  0
 31 39  1  0  0  0  0
 33 34  1  0  0  0  0
 35 36  1  0  0  0  0
 35 41  1  6  0  0  0
 37 38  1  0  0  0  0
 39 40  1  1  0  0  0
 41 42  1  0  0  0  0
M  END
>  <CHROM.1>
-169.68873904,-175.57775831,-171.31296484,163.32102129,-139.54005301,-63.29193511
73.67435092,-50.79175184,67.64323293,36.59602074,37.44624524,-14.50073355
1.95155967,0.46167152,-2.68484626

>  <Name>
3c44_lig

>  <RI>
0

>  <Rbt.Current_Directory>
/home/itssahil/PROJECTS/Mol_Feturizer/New_Systems/rnas/3c44

>  <Rbt.Executable>
rbdock ($Id: //depot/dev/client3/rdock/2013.1/src/exe/rbdock.cxx#4 $)

>  <Rbt.Library>
libRbt.so (2013.1, Build901 2013/11/27)

>  <Rbt.Parameter_File>
/export/apps/rDock/src/rDock_2013.1_src/data/scripts/dock_solv.prm

>  <Rbt.Receptor>
prm/pocket_docking_6.prm

>  <SCORE>
-8.19072

>  <SCORE.INTER>
-6.09522

>  <SCORE.INTER.CONST>
1

>  <SCORE.INTER.POLAR>
-0.943246

>  <SCORE.INTER.ROT>
9

>  <SCORE.INTER.SOLV>
13.7566

>  <SCORE.INTER.VDW>
-15.1049

>  <SCORE.INTER.norm>
-0.145124

>  <SCORE.INTRA>
-2.09549

>  <SCORE.INTRA.DIHEDRAL>
-5.50569

>  <SCORE.INTRA.DIHEDRAL.0>
14.8538

>  <SCORE.INTRA.POLAR>
0

>  <SCORE.INTRA.POLAR.0>
0

>  <SCORE.INTRA.REPUL>
0

>  <SCORE.INTRA.REPUL.0>
0

>  <SCORE.INTRA.SOLV>
-2.22094

>  <SCORE.INTRA.SOLV.lig_0>
-100.951

>  <SCORE.INTRA.VDW>
1.76782

>  <SCORE.INTRA.VDW.0>
-5.71388

>  <SCORE.INTRA.norm>
-0.0498927

>  <SCORE.RESTR>
0

>  <SCORE.RESTR.CAVITY>
0

>  <SCORE.RESTR.norm>
0

>  <SCORE.SYSTEM>
0

>  <SCORE.SYSTEM.CONST>
0

>  <SCORE.SYSTEM.DIHEDRAL>
0

>  <SCORE.SYSTEM.SOLV>
0

>  <SCORE.SYSTEM.norm>
0

>  <SCORE.heavy>
42

>  <SCORE.norm>
-0.195017

>  <RMSD>
5.424

$$$$
3c44_lig
 OpenBabel11021811463D
libRbt.so/2013.1/901 2013/11/27
 42 45  0  0  0  0  0  0  0  0999 V2000
   33.0354   36.9949  -16.1521 C   0  0  2  0  0  0  0  0  0  0  0  0
   33.2705   36.4831  -14.8313 O   0  0  0  0  0  0  0  0  0  0  0  0
   36.5260   35.3840  -12.5112 C   0  0  2  0  0  0  0  0  0  0  0  0
   37.7986   35.1082  -11.8268 N   0  0  0  0  0  0  0  0  0  0  0  0
   35.4712   39.3126  -13.7567 C   0  0  1  0  0  0  0  0  0  0  0  0
   37.7486   41.8308  -16.2063 C   0  0  1  0  0  0  0  0  0  0  0  0
   31.5618   37.3955  -16.2790 C   0  0  2  0  0  0  0  0  0  0  0  0
   31.1810   38.3358  -15.2151 N   0  0  0  0  0  0  0  0  0  0  0  0
   36.6027   34.9652  -13.9822 C   0  0  0  0  0  0  0  0  0  0  0  0
   34.7823   40.5254  -14.3840 C   0  0  2  0  0  0  0  0  0  0  0  0
   34.1859   40.1582  -15.6295 O   0  0  0  0  0  0  0  0  0  0  0  0
   38.5226   41.2550  -17.3967 C   0  0  2  0  0  0  0  0  0  0  0  0
   39.0718   39.9503  -17.0024 N   0  0  0  0  0  0  0  0  0  0  0  0
   30.6448   36.1715  -16.2160 C   0  0  1  0  0  0  0  0  0  0  0  0
   29.3008   36.5747  -16.4965 O   0  0  0  0  0  0  0  0  0  0  0  0
   35.2056   35.1339  -14.5887 C   0  0  2  0  0  0  0  0  0  0  0  0
   35.2530   34.7989  -16.0200 N   0  0  0  0  0  0  0  0  0  0  0  0
   36.0036   41.3995  -14.6617 C   0  0  2  0  0  0  0  0  0  0  0  0
   36.7653   40.8789  -15.7635 O   0  0  0  0  0  0  0  0  0  0  0  0
   39.6793   42.1773  -17.8035 C   0  0  1  0  0  0  0  0  0  0  0  0
   39.1765   43.3710  -18.4095 O   0  0  0  0  0  0  0  0  0  0  0  0
   31.0927   35.1337  -17.2468 C   0  0  2  0  0  0  0  0  0  0  0  0
   30.3036   33.9489  -17.1098 O   0  0  0  0  0  0  0  0  0  0  0  0
   34.6502   36.5549  -14.4310 C   0  0  2  0  0  0  0  0  0  0  0  0
   36.7817   41.2071  -13.3696 C   0  0  2  0  0  0  0  0  0  0  0  0
   36.4505   39.8916  -12.8745 O   0  0  0  0  0  0  0  0  0  0  0  0
   40.5283   42.5619  -16.5907 C   0  0  2  0  0  0  0  0  0  0  0  0
   41.2103   41.3976  -16.1161 O   0  0  0  0  0  0  0  0  0  0  0  0
   32.5685   34.7978  -17.0270 C   0  0  2  0  0  0  0  0  0  0  0  0
   33.3705   35.9910  -17.1283 O   0  0  0  0  0  0  0  0  0  0  0  0
   34.7683   37.1212  -13.0175 C   0  0  2  0  0  0  0  0  0  0  0  0
   34.4948   38.5316  -13.0457 O   0  0  0  0  0  0  0  0  0  0  0  0
   36.3792   42.2898  -12.3660 C   0  0  0  0  0  0  0  0  0  0  0  0
   35.1241   41.9393  -11.7787 O   0  0  0  0  0  0  0  0  0  0  0  0
   39.6129   43.1268  -15.5012 C   0  0  1  0  0  0  0  0  0  0  0  0
   38.6627   42.1111  -15.1341 O   0  0  0  0  0  0  0  0  0  0  0  0
   32.9825   33.7957  -18.1077 C   0  0  0  0  0  0  0  0  0  0  0  0
   32.4481   32.4633  -17.7915 O   0  0  0  0  0  0  0  0  0  0  0  0
   36.1670   36.8704  -12.4415 C   0  0  1  0  0  0  0  0  0  0  0  0
   36.2279   37.3278  -11.0887 O   0  0  0  0  0  0  0  0  0  0  0  0
   40.3910   43.5568  -14.2570 C   0  0  0  0  0  0  0  0  0  0  0  0
   40.9267   42.3646  -13.5854 N   0  0  0  0  0  0  0  0  0  0  0  0
  1  2  1  1  0  0  0
  1  7  1  0  0  0  0
  1 30  1  0  0  0  0
  3  4  1  6  0  0  0
  3  9  1  0  0  0  0
  3 39  1  0  0  0  0
  5 10  1  0  0  0  0
  5 26  1  0  0  0  0
  5 32  1  1  0  0  0
  6 12  1  0  0  0  0
  6 36  1  0  0  0  0
  6 19  1  1  0  0  0
  7  8  1  1  0  0  0
  7 14  1  0  0  0  0
  9 16  1  0  0  0  0
 10 11  1  6  0  0  0
 10 18  1  0  0  0  0
 12 13  1  1  0  0  0
 12 20  1  0  0  0  0
 14 15  1  6  0  0  0
 14 22  1  0  0  0  0
 16 17  1  6  0  0  0
 16 24  1  0  0  0  0
 18 19  1  6  0  0  0
 18 25  1  0  0  0  0
 20 21  1  1  0  0  0
 20 27  1  0  0  0  0
 22 23  1  1  0  0  0
 22 29  1  0  0  0  0
 24  2  1  1  0  0  0
 24 31  1  0  0  0  0
 25 26  1  0  0  0  0
 25 33  1  1  0  0  0
 27 28  1  1  0  0  0
 27 35  1  0  0  0  0
 29 30  1  0  0  0  0
 29 37  1  6  0  0  0
 31 32  1  6  0  0  0
 31 39  1  0  0  0  0
 33 34  1  0  0  0  0
 35 36  1  0  0  0  0
 35 41  1  1  0  0  0
 37 38  1  0  0  0  0
 39 40  1  1  0  0  0
 41 42  1  0  0  0  0
M  END
>  <CHROM.1>
-157.70627873,148.90969579,-178.91828402,168.12683872,-102.23316955,78.46752357
-75.44646401,-66.64999034,-68.75455469,35.61769062,38.59937178,-15.12358001
2.92858549,0.77593714,1.99814516

>  <Name>
3c44_lig

>  <RI>
0

>  <Rbt.Current_Directory>
/home/itssahil/PROJECTS/Mol_Feturizer/New_Systems/rnas/3c44

>  <Rbt.Executable>
rbdock ($Id: //depot/dev/client3/rdock/2013.1/src/exe/rbdock.cxx#4 $)

>  <Rbt.Library>
libRbt.so (2013.1, Build901 2013/11/27)

>  <Rbt.Parameter_File>
/export/apps/rDock/src/rDock_2013.1_src/data/scripts/dock_solv.prm

>  <Rbt.Receptor>
prm/pocket_docking_4.prm

>  <SCORE>
-3.90113

>  <SCORE.INTER>
-7.7326

>  <SCORE.INTER.CONST>
1

>  <SCORE.INTER.POLAR>
-1.26911

>  <SCORE.INTER.ROT>
9

>  <SCORE.INTER.SOLV>
19.2966

>  <SCORE.INTER.VDW>
-16.9569

>  <SCORE.INTER.norm>
-0.18411

>  <SCORE.INTRA>
3.83147

>  <SCORE.INTRA.DIHEDRAL>
0.24773

>  <SCORE.INTRA.DIHEDRAL.0>
14.8538

>  <SCORE.INTRA.POLAR>
0

>  <SCORE.INTRA.POLAR.0>
0

>  <SCORE.INTRA.REPUL>
0

>  <SCORE.INTRA.REPUL.0>
0

>  <SCORE.INTRA.SOLV>
2.11016

>  <SCORE.INTRA.SOLV.lig_0>
-100.951

>  <SCORE.INTRA.VDW>
2.65253

>  <SCORE.INTRA.VDW.0>
-5.71388

>  <SCORE.INTRA.norm>
0.0912256

>  <SCORE.RESTR>
0

>  <SCORE.RESTR.CAVITY>
0

>  <SCORE.RESTR.norm>
0

>  <SCORE.SYSTEM>
0

>  <SCORE.SYSTEM.CONST>
0

>  <SCORE.SYSTEM.DIHEDRAL>
0

>  <SCORE.SYSTEM.SOLV>
0

>  <SCORE.SYSTEM.norm>
0

>  <SCORE.heavy>
42

>  <SCORE.norm>
-0.092884

>  <RMSD>
5.453

$$$$
3c44_lig
 OpenBabel11021811463D
libRbt.so/2013.1/901 2013/11/27
 42 45  0  0  0  0  0  0  0  0999 V2000
   34.3132   37.4080  -17.4549 C   0  0  2  0  0  0  0  0  0  0  0  0
   33.9091   37.1260  -16.1062 O   0  0  0  0  0  0  0  0  0  0  0  0
   35.9425   34.9392  -13.2299 C   0  0  2  0  0  0  0  0  0  0  0  0
   36.8295   34.2938  -12.2499 N   0  0  0  0  0  0  0  0  0  0  0  0
   35.5156   39.2098  -13.6339 C   0  0  1  0  0  0  0  0  0  0  0  0
   38.3553   42.2624  -14.1808 C   0  0  1  0  0  0  0  0  0  0  0  0
   33.5622   38.6469  -17.9540 C   0  0  2  0  0  0  0  0  0  0  0  0
   33.7570   39.7814  -17.0398 N   0  0  0  0  0  0  0  0  0  0  0  0
   36.5908   34.9535  -14.6172 C   0  0  0  0  0  0  0  0  0  0  0  0
   35.2158   40.6089  -13.0940 C   0  0  2  0  0  0  0  0  0  0  0  0
   34.5089   41.3698  -14.0754 O   0  0  0  0  0  0  0  0  0  0  0  0
   38.8323   42.6522  -15.5837 C   0  0  2  0  0  0  0  0  0  0  0  0
   39.0177   41.4224  -16.3663 N   0  0  0  0  0  0  0  0  0  0  0  0
   32.0633   38.3701  -18.0947 C   0  0  1  0  0  0  0  0  0  0  0  0
   31.4318   39.4969  -18.7103 O   0  0  0  0  0  0  0  0  0  0  0  0
   35.5562   35.4936  -15.6102 C   0  0  2  0  0  0  0  0  0  0  0  0
   36.1637   35.5801  -16.9468 N   0  0  0  0  0  0  0  0  0  0  0  0
   36.6392   41.1515  -12.9819 C   0  0  2  0  0  0  0  0  0  0  0  0
   37.1816   41.4370  -14.2816 O   0  0  0  0  0  0  0  0  0  0  0  0
   40.1661   43.4082  -15.5250 C   0  0  1  0  0  0  0  0  0  0  0  0
   39.9759   44.7139  -14.9738 O   0  0  0  0  0  0  0  0  0  0  0  0
   31.8438   37.1264  -18.9579 C   0  0  2  0  0  0  0  0  0  0  0  0
   30.4502   36.8078  -18.9959 O   0  0  0  0  0  0  0  0  0  0  0  0
   35.0154   36.8753  -15.2218 C   0  0  2  0  0  0  0  0  0  0  0  0
   37.3495   39.9453  -12.3880 C   0  0  2  0  0  0  0  0  0  0  0  0
   36.6438   38.7743  -12.8528 O   0  0  0  0  0  0  0  0  0  0  0  0
   41.1865   42.6569  -14.6684 C   0  0  2  0  0  0  0  0  0  0  0  0
   41.5453   41.4433  -15.3350 O   0  0  0  0  0  0  0  0  0  0  0  0
   32.6251   35.9505  -18.3697 C   0  0  2  0  0  0  0  0  0  0  0  0
   34.0277   36.2735  -18.2942 O   0  0  0  0  0  0  0  0  0  0  0  0
   34.5717   36.9884  -13.7647 C   0  0  2  0  0  0  0  0  0  0  0  0
   34.3634   38.3718  -13.4368 O   0  0  0  0  0  0  0  0  0  0  0  0
   37.3183   40.0360  -10.8608 C   0  0  0  0  0  0  0  0  0  0  0  0
   36.0332   39.6193  -10.3941 O   0  0  0  0  0  0  0  0  0  0  0  0
   40.5631   42.3531  -13.3034 C   0  0  1  0  0  0  0  0  0  0  0  0
   39.3966   41.5366  -13.5080 O   0  0  0  0  0  0  0  0  0  0  0  0
   32.4143   34.7459  -19.2905 C   0  0  0  0  0  0  0  0  0  0  0  0
   32.9888   35.0177  -20.6161 O   0  0  0  0  0  0  0  0  0  0  0  0
   35.6182   36.3791  -12.8242 C   0  0  1  0  0  0  0  0  0  0  0  0
   35.1440   36.4149  -11.4763 O   0  0  0  0  0  0  0  0  0  0  0  0
   41.5314   41.6184  -12.3754 C   0  0  0  0  0  0  0  0  0  0  0  0
   40.9075   41.4576  -11.0547 N   0  0  0  0  0  0  0  0  0  0  0  0
  1  2  1  1  0  0  0
  1  7  1  0  0  0  0
  1 30  1  0  0  0  0
  3  4  1  1  0  0  0
  3  9  1  0  0  0  0
  3 39  1  0  0  0  0
  5 10  1  0  0  0  0
  5 26  1  0  0  0  0
  5 32  1  1  0  0  0
  6 12  1  0  0  0  0
  6 36  1  0  0  0  0
  6 19  1  6  0  0  0
  7  8  1  1  0  0  0
  7 14  1  0  0  0  0
  9 16  1  0  0  0  0
 10 11  1  6  0  0  0
 10 18  1  0  0  0  0
 12 13  1  6  0  0  0
 12 20  1  0  0  0  0
 14 15  1  6  0  0  0
 14 22  1  0  0  0  0
 16 17  1  6  0  0  0
 16 24  1  0  0  0  0
 18 19  1  6  0  0  0
 18 25  1  0  0  0  0
 20 21  1  1  0  0  0
 20 27  1  0  0  0  0
 22 23  1  1  0  0  0
 22 29  1  0  0  0  0
 24  2  1  6  0  0  0
 24 31  1  0  0  0  0
 25 26  1  0  0  0  0
 25 33  1  1  0  0  0
 27 28  1  6  0  0  0
 27 35  1  0  0  0  0
 29 30  1  0  0  0  0
 29 37  1  6  0  0  0
 31 32  1  1  0  0  0
 31 39  1  0  0  0  0
 33 34  1  0  0  0  0
 35 36  1  0  0  0  0
 35 41  1  1  0  0  0
 37 38  1  0  0  0  0
 39 40  1  1  0  0  0
 41 42  1  0  0  0  0
M  END
>  <CHROM.1>
-132.72306182,-173.24941452,-174.87715441,164.77598935,-72.35701109,78.99204615
63.92409731,-57.84918674,175.45790509,36.09598575,38.92855998,-15.02344082
-3.13389517,0.81776365,2.24397368

>  <Name>
3c44_lig

>  <RI>
0

>  <Rbt.Current_Directory>
/home/itssahil/PROJECTS/Mol_Feturizer/New_Systems/rnas/3c44

>  <Rbt.Executable>
rbdock ($Id: //depot/dev/client3/rdock/2013.1/src/exe/rbdock.cxx#4 $)

>  <Rbt.Library>
libRbt.so (2013.1, Build901 2013/11/27)

>  <Rbt.Parameter_File>
/export/apps/rDock/src/rDock_2013.1_src/data/scripts/dock_solv.prm

>  <Rbt.Receptor>
prm/pocket_docking_6.prm

>  <SCORE>
-9.85275

>  <SCORE.INTER>
-12.0727

>  <SCORE.INTER.CONST>
1

>  <SCORE.INTER.POLAR>
-2.72791

>  <SCORE.INTER.ROT>
9

>  <SCORE.INTER.SOLV>
16.7708

>  <SCORE.INTER.VDW>
-14.1457

>  <SCORE.INTER.norm>
-0.287446

>  <SCORE.INTRA>
2.20387

>  <SCORE.INTRA.DIHEDRAL>
-4.5365

>  <SCORE.INTRA.DIHEDRAL.0>
14.8538

>  <SCORE.INTRA.POLAR>
0

>  <SCORE.INTRA.POLAR.0>
0

>  <SCORE.INTRA.REPUL>
0

>  <SCORE.INTRA.REPUL.0>
0

>  <SCORE.INTRA.SOLV>
0.442321

>  <SCORE.INTRA.SOLV.lig_0>
-100.951

>  <SCORE.INTRA.VDW>
4.25096

>  <SCORE.INTRA.VDW.0>
-5.71388

>  <SCORE.INTRA.norm>
0.0524731

>  <SCORE.RESTR>
0.016127

>  <SCORE.RESTR.CAVITY>
0.016127

>  <SCORE.RESTR.norm>
0.000383975

>  <SCORE.SYSTEM>
0

>  <SCORE.SYSTEM.CONST>
0

>  <SCORE.SYSTEM.DIHEDRAL>
0

>  <SCORE.SYSTEM.SOLV>
0

>  <SCORE.SYSTEM.norm>
0

>  <SCORE.heavy>
42

>  <SCORE.norm>
-0.234589

>  <RMSD>
5.505

$$$$
3c44_lig
 OpenBabel11021811463D
libRbt.so/2013.1/901 2013/11/27
 42 45  0  0  0  0  0  0  0  0999 V2000
   34.2451   34.8940  -18.5012 C   0  0  2  0  0  0  0  0  0  0  0  0
   34.3877   35.0010  -17.0764 O   0  0  0  0  0  0  0  0  0  0  0  0
   31.0189   37.4144  -16.9477 C   0  0  2  0  0  0  0  0  0  0  0  0
   29.8891   38.3246  -16.7048 N   0  0  0  0  0  0  0  0  0  0  0  0
   35.0594   38.4805  -16.0424 C   0  0  1  0  0  0  0  0  0  0  0  0
   36.7973   39.6809  -12.3837 C   0  0  1  0  0  0  0  0  0  0  0  0
   34.2050   33.4125  -18.8906 C   0  0  2  0  0  0  0  0  0  0  0  0
   33.1540   32.7035  -18.1466 N   0  0  0  0  0  0  0  0  0  0  0  0
   31.1027   36.3526  -15.8474 C   0  0  0  0  0  0  0  0  0  0  0  0
   36.5700   38.6978  -15.9429 C   0  0  2  0  0  0  0  0  0  0  0  0
   37.2168   37.4748  -15.5858 O   0  0  0  0  0  0  0  0  0  0  0  0
   38.3108   39.8927  -12.4947 C   0  0  2  0  0  0  0  0  0  0  0  0
   38.9481   38.5814  -12.6774 N   0  0  0  0  0  0  0  0  0  0  0  0
   35.5501   32.7311  -18.6272 C   0  0  1  0  0  0  0  0  0  0  0  0
   35.5143   31.3997  -19.1503 O   0  0  0  0  0  0  0  0  0  0  0  0
   32.1951   35.3542  -16.2447 C   0  0  2  0  0  0  0  0  0  0  0  0
   32.3477   34.3510  -15.1802 N   0  0  0  0  0  0  0  0  0  0  0  0
   36.6149   39.6460  -14.7463 C   0  0  2  0  0  0  0  0  0  0  0  0
   36.3278   38.9436  -13.5260 O   0  0  0  0  0  0  0  0  0  0  0  0
   38.8733   40.5447  -11.2248 C   0  0  1  0  0  0  0  0  0  0  0  0
   38.4542   41.9090  -11.1365 O   0  0  0  0  0  0  0  0  0  0  0  0
   36.6724   33.5174  -19.3073 C   0  0  2  0  0  0  0  0  0  0  0  0
   37.9365   32.9412  -18.9681 O   0  0  0  0  0  0  0  0  0  0  0  0
   33.5539   36.0195  -16.4965 C   0  0  2  0  0  0  0  0  0  0  0  0
   35.4578   40.5731  -15.0838 C   0  0  2  0  0  0  0  0  0  0  0  0
   34.5091   39.7963  -15.8467 O   0  0  0  0  0  0  0  0  0  0  0  0
   38.4028   39.8039   -9.9720 C   0  0  2  0  0  0  0  0  0  0  0  0
   39.0045   38.5065   -9.9489 O   0  0  0  0  0  0  0  0  0  0  0  0
   36.6298   34.9745  -18.8444 C   0  0  2  0  0  0  0  0  0  0  0  0
   35.3469   35.5559  -19.1500 O   0  0  0  0  0  0  0  0  0  0  0  0
   33.4936   37.2442  -17.4071 C   0  0  2  0  0  0  0  0  0  0  0  0
   34.7445   37.9483  -17.3409 O   0  0  0  0  0  0  0  0  0  0  0  0
   35.9765   41.7607  -15.8974 C   0  0  0  0  0  0  0  0  0  0  0  0
   36.4466   41.2908  -17.1627 O   0  0  0  0  0  0  0  0  0  0  0  0
   36.8768   39.6851  -10.0076 C   0  0  1  0  0  0  0  0  0  0  0  0
   36.5057   38.9459  -11.1845 O   0  0  0  0  0  0  0  0  0  0  0  0
   37.7364   35.7295  -19.5853 C   0  0  0  0  0  0  0  0  0  0  0  0
   39.0551   35.2758  -19.1204 O   0  0  0  0  0  0  0  0  0  0  0  0
   32.3462   38.1754  -16.9983 C   0  0  1  0  0  0  0  0  0  0  0  0
   32.2520   39.2672  -17.9159 O   0  0  0  0  0  0  0  0  0  0  0  0
   36.3228   38.9719   -8.7736 C   0  0  0  0  0  0  0  0  0  0  0  0
   36.8495   37.6007   -8.7301 N   0  0  0  0  0  0  0  0  0  0  0  0
  1  2  1  1  0  0  0
  1  7  1  0  0  0  0
  1 30  1  0  0  0  0
  3  4  1  1  0  0  0
  3  9  1  0  0  0  0
  3 39  1  0  0  0  0
  5 10  1  0  0  0  0
  5 26  1  0  0  0  0
  5 32  1  6  0  0  0
  6 12  1  0  0  0  0
  6 36  1  0  0  0  0
  6 19  1  6  0  0  0
  7  8  1  1  0  0  0
  7 14  1  0  0  0  0
  9 16  1  0  0  0  0
 10 11  1  1  0  0  0
 10 18  1  0  0  0  0
 12 13  1  1  0  0  0
 12 20  1  0  0  0  0
 14 15  1  6  0  0  0
 14 22  1  0  0  0  0
 16 17  1  1  0  0  0
 16 24  1  0  0  0  0
 18 19  1  1  0  0  0
 18 25  1  0  0  0  0
 20 21  1  1  0  0  0
 20 27  1  0  0  0  0
 22 23  1  1  0  0  0
 22 29  1  0  0  0  0
 24  2  1  6  0  0  0
 24 31  1  0  0  0  0
 25 26  1  0  0  0  0
 25 33  1  6  0  0  0
 27 28  1  6  0  0  0
 27 35  1  0  0  0  0
 29 30  1  0  0  0  0
 29 37  1  6  0  0  0
 31 32  1  1  0  0  0
 31 39  1  0  0  0  0
 33 34  1  0  0  0  0
 35 36  1  0  0  0  0
 35 41  1  1  0  0  0
 37 38  1  0  0  0  0
 39 40  1  6  0  0  0
 41 42  1  0  0  0  0
M  END
>  <CHROM.1>
-137.76495709,157.88563971,-59.46079556,160.50420873,85.77251774,65.94636184
-68.54265784,-63.21326270,-62.01469710,35.58293679,37.36862504,-15.51333623
-1.90925071,-0.35541367,0.81433407

>  <Name>
3c44_lig

>  <RI>
224

>  <Rbt.Current_Directory>
/home/itssahil/PROJECTS/Mol_Feturizer/New_Systems/rnas/3c44

>  <Rbt.Executable>
rbdock ($Id: //depot/dev/client3/rdock/2013.1/src/exe/rbdock.cxx#4 $)

>  <Rbt.Library>
libRbt.so (2013.1, Build901 2013/11/27)

>  <Rbt.Parameter_File>
/export/apps/rDock/src/rDock_2013.1_src/data/scripts/dock_solv.prm

>  <Rbt.Receptor>
prm/pocket_docking_8.prm

>  <SCORE>
-13.096

>  <SCORE.INTER>
-17.5268

>  <SCORE.INTER.CONST>
1

>  <SCORE.INTER.POLAR>
-3.58909

>  <SCORE.INTER.ROT>
9

>  <SCORE.INTER.SOLV>
21.2848

>  <SCORE.INTER.VDW>
-16.4159

>  <SCORE.INTER.norm>
-0.417306

>  <SCORE.INTRA>
4.4308

>  <SCORE.INTRA.DIHEDRAL>
-1.72528

>  <SCORE.INTRA.DIHEDRAL.0>
14.8538

>  <SCORE.INTRA.POLAR>
0

>  <SCORE.INTRA.POLAR.0>
0

>  <SCORE.INTRA.REPUL>
0

>  <SCORE.INTRA.REPUL.0>
0

>  <SCORE.INTRA.SOLV>
0.43946

>  <SCORE.INTRA.SOLV.lig_0>
-100.951

>  <SCORE.INTRA.VDW>
5.07371

>  <SCORE.INTRA.VDW.0>
-5.71388

>  <SCORE.INTRA.norm>
0.105495

>  <SCORE.RESTR>
0

>  <SCORE.RESTR.CAVITY>
0

>  <SCORE.RESTR.norm>
0

>  <SCORE.SYSTEM>
0

>  <SCORE.SYSTEM.CONST>
0

>  <SCORE.SYSTEM.DIHEDRAL>
0

>  <SCORE.SYSTEM.SOLV>
0

>  <SCORE.SYSTEM.norm>
0

>  <SCORE.heavy>
42

>  <SCORE.norm>
-0.31181

>  <RMSD>
5.557

$$$$
3c44_lig
 OpenBabel11021811463D
libRbt.so/2013.1/901 2013/11/27
 42 45  0  0  0  0  0  0  0  0999 V2000
   40.8487   37.8563  -16.4913 C   0  0  2  0  0  0  0  0  0  0  0  0
   39.7992   38.1698  -17.4197 O   0  0  0  0  0  0  0  0  0  0  0  0
   36.0826   39.8805  -16.7485 C   0  0  2  0  0  0  0  0  0  0  0  0
   34.7159   40.3049  -16.4083 N   0  0  0  0  0  0  0  0  0  0  0  0
   40.2290   40.0949  -14.4340 C   0  0  1  0  0  0  0  0  0  0  0  0
   41.2410   43.7442  -14.8281 C   0  0  1  0  0  0  0  0  0  0  0  0
   42.1842   37.8124  -17.2413 C   0  0  2  0  0  0  0  0  0  0  0  0
   42.4136   39.0646  -17.9764 N   0  0  0  0  0  0  0  0  0  0  0  0
   36.0612   38.5538  -17.5130 C   0  0  0  0  0  0  0  0  0  0  0  0
   39.6390   41.3765  -13.8436 C   0  0  2  0  0  0  0  0  0  0  0  0
   39.1529   42.2179  -14.8911 O   0  0  0  0  0  0  0  0  0  0  0  0
   42.1331   44.2255  -15.9771 C   0  0  2  0  0  0  0  0  0  0  0  0
   43.5169   44.2973  -15.4879 N   0  0  0  0  0  0  0  0  0  0  0  0
   42.2325   36.6399  -18.2242 C   0  0  1  0  0  0  0  0  0  0  0  0
   43.5472   36.5454  -18.7808 O   0  0  0  0  0  0  0  0  0  0  0  0
   37.4935   38.2543  -17.9679 C   0  0  2  0  0  0  0  0  0  0  0  0
   37.5240   36.9541  -18.6545 N   0  0  0  0  0  0  0  0  0  0  0  0
   40.9065   41.9983  -13.2608 C   0  0  2  0  0  0  0  0  0  0  0  0
   41.7535   42.5063  -14.3046 O   0  0  0  0  0  0  0  0  0  0  0  0
   41.7066   45.6166  -16.4640 C   0  0  1  0  0  0  0  0  0  0  0  0
   40.4575   45.5419  -17.1561 O   0  0  0  0  0  0  0  0  0  0  0  0
   41.8907   35.3383  -17.4967 C   0  0  2  0  0  0  0  0  0  0  0  0
   41.8290   34.2636  -18.4381 O   0  0  0  0  0  0  0  0  0  0  0  0
   38.4980   38.2259  -16.8092 C   0  0  2  0  0  0  0  0  0  0  0  0
   41.5525   40.7734  -12.6327 C   0  0  2  0  0  0  0  0  0  0  0  0
   41.1369   39.6338  -13.4163 O   0  0  0  0  0  0  0  0  0  0  0  0
   41.5617   46.5886  -15.2919 C   0  0  2  0  0  0  0  0  0  0  0  0
   42.8555   46.8367  -14.7346 O   0  0  0  0  0  0  0  0  0  0  0  0
   40.5407   35.4845  -16.7928 C   0  0  2  0  0  0  0  0  0  0  0  0
   40.5802   36.5875  -15.8659 O   0  0  0  0  0  0  0  0  0  0  0  0
   38.4010   39.4228  -15.8654 C   0  0  2  0  0  0  0  0  0  0  0  0
   39.1669   39.1566  -14.6792 O   0  0  0  0  0  0  0  0  0  0  0  0
   41.0888   40.6406  -11.1805 C   0  0  0  0  0  0  0  0  0  0  0  0
   41.4964   41.8007  -10.4517 O   0  0  0  0  0  0  0  0  0  0  0  0
   40.6371   45.9676  -14.2415 C   0  0  1  0  0  0  0  0  0  0  0  0
   41.2261   44.7357  -13.7888 O   0  0  0  0  0  0  0  0  0  0  0  0
   40.2649   34.1794  -16.0418 C   0  0  0  0  0  0  0  0  0  0  0  0
   41.2896   33.9650  -15.0098 O   0  0  0  0  0  0  0  0  0  0  0  0
   36.9417   39.7104  -15.4930 C   0  0  1  0  0  0  0  0  0  0  0  0
   36.8663   40.8857  -14.6830 O   0  0  0  0  0  0  0  0  0  0  0  0
   40.4227   46.8902  -13.0410 C   0  0  0  0  0  0  0  0  0  0  0  0
   39.5611   48.0116  -13.4405 N   0  0  0  0  0  0  0  0  0  0  0  0
  1  2  1  6  0  0  0
  1  7  1  0  0  0  0
  1 30  1  0  0  0  0
  3  4  1  1  0  0  0
  3  9  1  0  0  0  0
  3 39  1  0  0  0  0
  5 10  1  0  0  0  0
  5 26  1  0  0  0  0
  5 32  1  1  0  0  0
  6 12  1  0  0  0  0
  6 36  1  0  0  0  0
  6 19  1  1  0  0  0
  7  8  1  6  0  0  0
  7 14  1  0  0  0  0
  9 16  1  0  0  0  0
 10 11  1  6  0  0  0
 10 18  1  0  0  0  0
 12 13  1  1  0  0  0
 12 20  1  0  0  0  0
 14 15  1  1  0  0  0
 14 22  1  0  0  0  0
 16 17  1  1  0  0  0
 16 24  1  0  0  0  0
 18 19  1  6  0  0  0
 18 25  1  0  0  0  0
 20 21  1  1  0  0  0
 20 27  1  0  0  0  0
 22 23  1  6  0  0  0
 22 29  1  0  0  0  0
 24  2  1  6  0  0  0
 24 31  1  0  0  0  0
 25 26  1  0  0  0  0
 25 33  1  1  0  0  0
 27 28  1  1  0  0  0
 27 35  1  0  0  0  0
 29 30  1  0  0  0  0
 29 37  1  1  0  0  0
 31 32  1  1  0  0  0
 31 39  1  0  0  0  0
 33 34  1  0  0  0  0
 35 36  1  0  0  0  0
 35 41  1  1  0  0  0
 37 38  1  0  0  0  0
 39 40  1  1  0  0  0
 41 42  1  0  0  0  0
M  END
>  <CHROM.1>
179.62872920,78.08295720,-177.58401501,75.94458845,-167.69400195,-61.07052134
62.72064345,120.24921315,72.23814534,40.29766789,40.48112897,-15.53715948
-1.65565323,-0.10633752,0.29517968

>  <Name>
3c44_lig

>  <RI>
224

>  <Rbt.Current_Directory>
/home/itssahil/PROJECTS/Mol_Feturizer/New_Systems/rnas/3c44

>  <Rbt.Executable>
rbdock ($Id: //depot/dev/client3/rdock/2013.1/src/exe/rbdock.cxx#4 $)

>  <Rbt.Library>
libRbt.so (2013.1, Build901 2013/11/27)

>  <Rbt.Parameter_File>
/export/apps/rDock/src/rDock_2013.1_src/data/scripts/dock_solv.prm

>  <Rbt.Receptor>
prm/pocket_docking_8.prm

>  <SCORE>
-6.67482

>  <SCORE.INTER>
-6.36294

>  <SCORE.INTER.CONST>
1

>  <SCORE.INTER.POLAR>
-0.916515

>  <SCORE.INTER.ROT>
9

>  <SCORE.INTER.SOLV>
8.70422

>  <SCORE.INTER.VDW>
-13.6883

>  <SCORE.INTER.norm>
-0.151498

>  <SCORE.INTRA>
-0.311879

>  <SCORE.INTRA.DIHEDRAL>
-3.34475

>  <SCORE.INTRA.DIHEDRAL.0>
14.8538

>  <SCORE.INTRA.POLAR>
0

>  <SCORE.INTRA.POLAR.0>
0

>  <SCORE.INTRA.REPUL>
0.00244759

>  <SCORE.INTRA.REPUL.0>
0

>  <SCORE.INTRA.SOLV>
-3.8813

>  <SCORE.INTRA.SOLV.lig_0>
-100.951

>  <SCORE.INTRA.VDW>
3.2889

>  <SCORE.INTRA.VDW.0>
-5.71388

>  <SCORE.INTRA.norm>
-0.00742569

>  <SCORE.RESTR>
0

>  <SCORE.RESTR.CAVITY>
0

>  <SCORE.RESTR.norm>
0

>  <SCORE.SYSTEM>
0

>  <SCORE.SYSTEM.CONST>
0

>  <SCORE.SYSTEM.DIHEDRAL>
0

>  <SCORE.SYSTEM.SOLV>
0

>  <SCORE.SYSTEM.norm>
0

>  <SCORE.heavy>
42

>  <SCORE.norm>
-0.158924

>  <RMSD>
5.560

$$$$
3c44_lig
 OpenBabel11021811463D
libRbt.so/2013.1/901 2013/11/27
 42 45  0  0  0  0  0  0  0  0999 V2000
   37.2054   35.6197  -16.2509 C   0  0  2  0  0  0  0  0  0  0  0  0
   38.3121   36.1912  -16.9652 O   0  0  0  0  0  0  0  0  0  0  0  0
   39.1691   40.1035  -18.0373 C   0  0  2  0  0  0  0  0  0  0  0  0
   39.2944   41.4816  -18.5362 N   0  0  0  0  0  0  0  0  0  0  0  0
   36.5912   39.1613  -14.5708 C   0  0  1  0  0  0  0  0  0  0  0  0
   35.3740   41.2556  -11.0916 C   0  0  1  0  0  0  0  0  0  0  0  0
   37.6826   34.3687  -15.5057 C   0  0  2  0  0  0  0  0  0  0  0  0
   38.8324   34.6788  -14.6440 N   0  0  0  0  0  0  0  0  0  0  0  0
   39.0716   39.1145  -19.2025 C   0  0  0  0  0  0  0  0  0  0  0  0
   35.3565   38.7308  -13.7776 C   0  0  2  0  0  0  0  0  0  0  0  0
   34.1969   39.3988  -14.2786 O   0  0  0  0  0  0  0  0  0  0  0  0
   35.4994   42.7826  -11.0982 C   0  0  2  0  0  0  0  0  0  0  0  0
   36.7975   43.1366  -11.6887 N   0  0  0  0  0  0  0  0  0  0  0  0
   38.0745   33.2556  -16.4807 C   0  0  1  0  0  0  0  0  0  0  0  0
   38.3595   32.0626  -15.7439 O   0  0  0  0  0  0  0  0  0  0  0  0
   39.1015   37.6989  -18.6167 C   0  0  2  0  0  0  0  0  0  0  0  0
   38.9478   36.7196  -19.7031 N   0  0  0  0  0  0  0  0  0  0  0  0
   35.7109   39.3168  -12.4124 C   0  0  2  0  0  0  0  0  0  0  0  0
   35.5827   40.7481  -12.4213 O   0  0  0  0  0  0  0  0  0  0  0  0
   35.4312   43.3500   -9.6743 C   0  0  1  0  0  0  0  0  0  0  0  0
   34.1058   43.2285   -9.1514 O   0  0  0  0  0  0  0  0  0  0  0  0
   36.9261   32.9918  -17.4563 C   0  0  2  0  0  0  0  0  0  0  0  0
   37.3362   32.0306  -18.4324 O   0  0  0  0  0  0  0  0  0  0  0  0
   38.0033   37.4575  -17.5736 C   0  0  2  0  0  0  0  0  0  0  0  0
   37.1808   38.9384  -12.3215 C   0  0  2  0  0  0  0  0  0  0  0  0
   37.6856   38.8963  -13.6738 O   0  0  0  0  0  0  0  0  0  0  0  0
   36.3963   42.6147   -8.7429 C   0  0  2  0  0  0  0  0  0  0  0  0
   37.7381   42.9176   -9.1351 O   0  0  0  0  0  0  0  0  0  0  0  0
   36.5349   34.2969  -18.1513 C   0  0  2  0  0  0  0  0  0  0  0  0
   36.1526   35.2852  -17.1744 O   0  0  0  0  0  0  0  0  0  0  0  0
   37.8963   38.5495  -16.5111 C   0  0  2  0  0  0  0  0  0  0  0  0
   36.6745   38.3785  -15.7745 O   0  0  0  0  0  0  0  0  0  0  0  0
   37.3150   37.5741  -11.6418 C   0  0  0  0  0  0  0  0  0  0  0  0
   36.6316   37.6078  -10.3869 O   0  0  0  0  0  0  0  0  0  0  0  0
   36.1365   41.1094   -8.8445 C   0  0  1  0  0  0  0  0  0  0  0  0
   36.3590   40.7004  -10.2056 O   0  0  0  0  0  0  0  0  0  0  0  0
   35.3549   33.9936  -19.0782 C   0  0  0  0  0  0  0  0  0  0  0  0
   34.8286   35.2415  -19.6498 O   0  0  0  0  0  0  0  0  0  0  0  0
   37.9313   39.9423  -17.1512 C   0  0  1  0  0  0  0  0  0  0  0  0
   37.9201   40.9477  -16.1353 O   0  0  0  0  0  0  0  0  0  0  0  0
   37.0507   40.3006   -7.9234 C   0  0  0  0  0  0  0  0  0  0  0  0
   36.7043   40.5876   -6.5244 N   0  0  0  0  0  0  0  0  0  0  0  0
  1  2  1  6  0  0  0
  1  7  1  0  0  0  0
  1 30  1  0  0  0  0
  3  4  1  6  0  0  0
  3  9  1  0  0  0  0
  3 39  1  0  0  0  0
  5 10  1  0  0  0  0
  5 26  1  0  0  0  0
  5 32  1  6  0  0  0
  6 12  1  0  0  0  0
  6 36  1  0  0  0  0
  6 19  1  6  0  0  0
  7  8  1  6  0  0  0
  7 14  1  0  0  0  0
  9 16  1  0  0  0  0
 10 11  1  6  0  0  0
 10 18  1  0  0  0  0
 12 13  1  1  0  0  0
 12 20  1  0  0  0  0
 14 15  1  1  0  0  0
 14 22  1  0  0  0  0
 16 17  1  6  0  0  0
 16 24  1  0  0  0  0
 18 19  1  6  0  0  0
 18 25  1  0  0  0  0
 20 21  1  1  0  0  0
 20 27  1  0  0  0  0
 22 23  1  6  0  0  0
 22 29  1  0  0  0  0
 24  2  1  1  0  0  0
 24 31  1  0  0  0  0
 25 26  1  0  0  0  0
 25 33  1  6  0  0  0
 27 28  1  6  0  0  0
 27 35  1  0  0  0  0
 29 30  1  0  0  0  0
 29 37  1  6  0  0  0
 31 32  1  6  0  0  0
 31 39  1  0  0  0  0
 33 34  1  0  0  0  0
 35 36  1  0  0  0  0
 35 41  1  1  0  0  0
 37 38  1  0  0  0  0
 39 40  1  1  0  0  0
 41 42  1  0  0  0  0
M  END
>  <CHROM.1>
-173.24239242,-171.31586264,169.64379396,156.55062931,-162.99702258,-53.92864148
173.09354098,167.40297670,67.12119947,36.96814219,38.38266884,-14.33296664
0.92305974,-1.35991498,-2.88317973

>  <Name>
3c44_lig

>  <RI>
0

>  <Rbt.Current_Directory>
/home/itssahil/PROJECTS/Mol_Feturizer/New_Systems/rnas/3c44

>  <Rbt.Executable>
rbdock ($Id: //depot/dev/client3/rdock/2013.1/src/exe/rbdock.cxx#4 $)

>  <Rbt.Library>
libRbt.so (2013.1, Build901 2013/11/27)

>  <Rbt.Parameter_File>
/export/apps/rDock/src/rDock_2013.1_src/data/scripts/dock_solv.prm

>  <Rbt.Receptor>
prm/pocket_docking_7.prm

>  <SCORE>
-16.2668

>  <SCORE.INTER>
-12.3998

>  <SCORE.INTER.CONST>
1

>  <SCORE.INTER.POLAR>
-1.60109

>  <SCORE.INTER.ROT>
9

>  <SCORE.INTER.SOLV>
17.2899

>  <SCORE.INTER.VDW>
-18.2929

>  <SCORE.INTER.norm>
-0.295232

>  <SCORE.INTRA>
-3.86707

>  <SCORE.INTRA.DIHEDRAL>
-8.5287

>  <SCORE.INTRA.DIHEDRAL.0>
14.8538

>  <SCORE.INTRA.POLAR>
0

>  <SCORE.INTRA.POLAR.0>
0

>  <SCORE.INTRA.REPUL>
0.000859425

>  <SCORE.INTRA.REPUL.0>
0

>  <SCORE.INTRA.SOLV>
-3.94611

>  <SCORE.INTRA.SOLV.lig_0>
-100.951

>  <SCORE.INTRA.VDW>
2.36604

>  <SCORE.INTRA.VDW.0>
-5.71388

>  <SCORE.INTRA.norm>
-0.0920732

>  <SCORE.RESTR>
0

>  <SCORE.RESTR.CAVITY>
0

>  <SCORE.RESTR.norm>
0

>  <SCORE.SYSTEM>
0

>  <SCORE.SYSTEM.CONST>
0

>  <SCORE.SYSTEM.DIHEDRAL>
0

>  <SCORE.SYSTEM.SOLV>
0

>  <SCORE.SYSTEM.norm>
0

>  <SCORE.heavy>
42

>  <SCORE.norm>
-0.387306

>  <RMSD>
5.562

$$$$
3c44_lig
 OpenBabel11021811463D
libRbt.so/2013.1/901 2013/11/27
 42 45  0  0  0  0  0  0  0  0999 V2000
   35.2185   37.4807  -17.5597 C   0  0  2  0  0  0  0  0  0  0  0  0
   34.5950   37.0184  -16.3517 O   0  0  0  0  0  0  0  0  0  0  0  0
   35.9928   34.6293  -13.2650 C   0  0  2  0  0  0  0  0  0  0  0  0
   36.6697   33.8962  -12.1842 N   0  0  0  0  0  0  0  0  0  0  0  0
   36.0272   38.8502  -13.3186 C   0  0  1  0  0  0  0  0  0  0  0  0
   39.2356   41.4956  -12.6073 C   0  0  1  0  0  0  0  0  0  0  0  0
   34.4215   38.6668  -18.1126 C   0  0  2  0  0  0  0  0  0  0  0  0
   34.2737   39.7182  -17.0959 N   0  0  0  0  0  0  0  0  0  0  0  0
   36.8285   34.5924  -14.5478 C   0  0  0  0  0  0  0  0  0  0  0  0
   35.7452   40.2878  -12.8796 C   0  0  2  0  0  0  0  0  0  0  0  0
   35.5953   41.1278  -14.0257 O   0  0  0  0  0  0  0  0  0  0  0  0
   40.3851   41.5324  -13.6197 C   0  0  2  0  0  0  0  0  0  0  0  0
   40.6781   40.1539  -14.0355 N   0  0  0  0  0  0  0  0  0  0  0  0
   33.0327   38.2317  -18.5870 C   0  0  1  0  0  0  0  0  0  0  0  0
   32.3901   39.3329  -19.2364 O   0  0  0  0  0  0  0  0  0  0  0  0
   35.9982   35.2346  -15.6641 C   0  0  2  0  0  0  0  0  0  0  0  0
   36.7931   35.2731  -16.9009 N   0  0  0  0  0  0  0  0  0  0  0  0
   37.0736   40.6143  -12.2002 C   0  0  2  0  0  0  0  0  0  0  0  0
   38.1156   40.7926  -13.1735 O   0  0  0  0  0  0  0  0  0  0  0  0
   41.6492   42.1426  -13.0002 C   0  0  1  0  0  0  0  0  0  0  0  0
   41.4763   43.5472  -12.7946 O   0  0  0  0  0  0  0  0  0  0  0  0
   33.1612   37.0644  -19.5674 C   0  0  2  0  0  0  0  0  0  0  0  0
   31.8598   36.5899  -19.9226 O   0  0  0  0  0  0  0  0  0  0  0  0
   35.5379   36.6583  -15.3270 C   0  0  2  0  0  0  0  0  0  0  0  0
   37.3138   39.3266  -11.4280 C   0  0  2  0  0  0  0  0  0  0  0  0
   36.6852   38.2656  -12.1793 O   0  0  0  0  0  0  0  0  0  0  0  0
   41.9755   41.4859  -11.6579 C   0  0  2  0  0  0  0  0  0  0  0  0
   42.3658   40.1294  -11.8897 O   0  0  0  0  0  0  0  0  0  0  0  0
   33.9613   35.9350  -18.9166 C   0  0  2  0  0  0  0  0  0  0  0  0
   35.2633   36.4111  -18.5226 O   0  0  0  0  0  0  0  0  0  0  0  0
   34.9059   36.8023  -13.9440 C   0  0  2  0  0  0  0  0  0  0  0  0
   34.7820   38.1968  -13.6204 O   0  0  0  0  0  0  0  0  0  0  0  0
   36.7018   39.4481  -10.0308 C   0  0  0  0  0  0  0  0  0  0  0  0
   36.5756   38.1435   -9.4607 O   0  0  0  0  0  0  0  0  0  0  0  0
   40.7348   41.5398  -10.7626 C   0  0  1  0  0  0  0  0  0  0  0  0
   39.6718   40.8232  -11.4152 O   0  0  0  0  0  0  0  0  0  0  0  0
   34.1045   34.8132  -19.9483 C   0  0  0  0  0  0  0  0  0  0  0  0
   32.7937   34.2041  -20.2165 O   0  0  0  0  0  0  0  0  0  0  0  0
   35.7489   36.0904  -12.8793 C   0  0  1  0  0  0  0  0  0  0  0  0
   35.0950   36.1610  -11.6102 O   0  0  0  0  0  0  0  0  0  0  0  0
   40.9857   40.9196   -9.3876 C   0  0  0  0  0  0  0  0  0  0  0  0
   39.8203   41.1646   -8.5264 N   0  0  0  0  0  0  0  0  0  0  0  0
  1  2  1  1  0  0  0
  1  7  1  0  0  0  0
  1 30  1  0  0  0  0
  3  4  1  1  0  0  0
  3  9  1  0  0  0  0
  3 39  1  0  0  0  0
  5 10  1  0  0  0  0
  5 26  1  0  0  0  0
  5 32  1  1  0  0  0
  6 12  1  0  0  0  0
  6 36  1  0  0  0  0
  6 19  1  6  0  0  0
  7  8  1  1  0  0  0
  7 14  1  0  0  0  0
  9 16  1  0  0  0  0
 10 11  1  6  0  0  0
 10 18  1  0  0  0  0
 12 13  1  1  0  0  0
 12 20  1  0  0  0  0
 14 15  1  6  0  0  0
 14 22  1  0  0  0  0
 16 17  1  6  0  0  0
 16 24  1  0  0  0  0
 18 19  1  6  0  0  0
 18 25  1  0  0  0  0
 20 21  1  1  0  0  0
 20 27  1  0  0  0  0
 22 23  1  1  0  0  0
 22 29  1  0  0  0  0
 24  2  1  6  0  0  0
 24 31  1  0  0  0  0
 25 26  1  0  0  0  0
 25 33  1  1  0  0  0
 27 28  1  6  0  0  0
 27 35  1  0  0  0  0
 29 30  1  0  0  0  0
 29 37  1  6  0  0  0
 31 32  1  1  0  0  0
 31 39  1  0  0  0  0
 33 34  1  0  0  0  0
 35 36  1  0  0  0  0
 35 41  1  1  0  0  0
 37 38  1  0  0  0  0
 39 40  1  1  0  0  0
 41 42  1  0  0  0  0
M  END
>  <CHROM.1>
-139.75739249,-175.27703839,173.78876226,161.88292559,-81.92395627,163.11446634
-67.52024034,-72.21905761,172.53437340,36.69657396,38.44965664,-14.34958927
-2.83417787,0.89644990,2.17844271

>  <Name>
3c44_lig

>  <RI>
0

>  <Rbt.Current_Directory>
/home/itssahil/PROJECTS/Mol_Feturizer/New_Systems/rnas/3c44

>  <Rbt.Executable>
rbdock ($Id: //depot/dev/client3/rdock/2013.1/src/exe/rbdock.cxx#4 $)

>  <Rbt.Library>
libRbt.so (2013.1, Build901 2013/11/27)

>  <Rbt.Parameter_File>
/export/apps/rDock/src/rDock_2013.1_src/data/scripts/dock_solv.prm

>  <Rbt.Receptor>
prm/pocket_docking_7.prm

>  <SCORE>
-10.4169

>  <SCORE.INTER>
-15.027

>  <SCORE.INTER.CONST>
1

>  <SCORE.INTER.POLAR>
-2.84543

>  <SCORE.INTER.ROT>
9

>  <SCORE.INTER.SOLV>
16.4928

>  <SCORE.INTER.VDW>
-15.6308

>  <SCORE.INTER.norm>
-0.357787

>  <SCORE.INTRA>
4.61011

>  <SCORE.INTRA.DIHEDRAL>
-3.07559

>  <SCORE.INTRA.DIHEDRAL.0>
14.8538

>  <SCORE.INTRA.POLAR>
0

>  <SCORE.INTRA.POLAR.0>
0

>  <SCORE.INTRA.REPUL>
0

>  <SCORE.INTRA.REPUL.0>
0

>  <SCORE.INTRA.SOLV>
0.0757601

>  <SCORE.INTRA.SOLV.lig_0>
-100.951

>  <SCORE.INTRA.VDW>
6.11002

>  <SCORE.INTRA.VDW.0>
-5.71388

>  <SCORE.INTRA.norm>
0.109764

>  <SCORE.RESTR>
0

>  <SCORE.RESTR.CAVITY>
0

>  <SCORE.RESTR.norm>
0

>  <SCORE.SYSTEM>
0

>  <SCORE.SYSTEM.CONST>
0

>  <SCORE.SYSTEM.DIHEDRAL>
0

>  <SCORE.SYSTEM.SOLV>
0

>  <SCORE.SYSTEM.norm>
0

>  <SCORE.heavy>
42

>  <SCORE.norm>
-0.248022

>  <RMSD>
5.575

$$$$
3c44_lig
 OpenBabel11021811463D
libRbt.so/2013.1/901 2013/11/27
 42 45  0  0  0  0  0  0  0  0999 V2000
   34.0019   36.9984  -16.2511 C   0  0  2  0  0  0  0  0  0  0  0  0
   34.4291   36.3766  -15.0294 O   0  0  0  0  0  0  0  0  0  0  0  0
   38.0466   34.9608  -13.5806 C   0  0  2  0  0  0  0  0  0  0  0  0
   39.3432   34.3494  -13.2509 N   0  0  0  0  0  0  0  0  0  0  0  0
   37.5553   38.7506  -15.9981 C   0  0  1  0  0  0  0  0  0  0  0  0
   39.2524   42.5811  -16.1553 C   0  0  1  0  0  0  0  0  0  0  0  0
   32.7220   37.7979  -15.9853 C   0  0  2  0  0  0  0  0  0  0  0  0
   32.9198   38.7530  -14.8855 N   0  0  0  0  0  0  0  0  0  0  0  0
   37.0106   33.8831  -13.9128 C   0  0  0  0  0  0  0  0  0  0  0  0
   37.1600   39.6756  -17.1502 C   0  0  2  0  0  0  0  0  0  0  0  0
   38.0200   39.4557  -18.2699 O   0  0  0  0  0  0  0  0  0  0  0  0
   40.7214   42.8476  -16.4999 C   0  0  2  0  0  0  0  0  0  0  0  0
   41.5472   41.8541  -15.7998 N   0  0  0  0  0  0  0  0  0  0  0  0
   31.5504   36.8749  -15.6409 C   0  0  1  0  0  0  0  0  0  0  0  0
   30.3496   37.6485  -15.5580 O   0  0  0  0  0  0  0  0  0  0  0  0
   35.6562   34.5772  -14.0912 C   0  0  2  0  0  0  0  0  0  0  0  0
   34.6449   33.5797  -14.4725 N   0  0  0  0  0  0  0  0  0  0  0  0
   37.5023   41.0262  -16.5244 C   0  0  2  0  0  0  0  0  0  0  0  0
   38.9256   41.2135  -16.4587 O   0  0  0  0  0  0  0  0  0  0  0  0
   41.1491   44.2515  -16.0526 C   0  0  1  0  0  0  0  0  0  0  0  0
   40.5339   45.2465  -16.8750 O   0  0  0  0  0  0  0  0  0  0  0  0
   31.3960   35.8058  -16.7242 C   0  0  2  0  0  0  0  0  0  0  0  0
   30.3732   34.8813  -16.3444 O   0  0  0  0  0  0  0  0  0  0  0  0
   35.6840   35.6845  -15.1522 C   0  0  2  0  0  0  0  0  0  0  0  0
   36.9500   40.8295  -15.1214 C   0  0  2  0  0  0  0  0  0  0  0  0
   37.0428   39.4181  -14.8300 O   0  0  0  0  0  0  0  0  0  0  0  0
   40.7582   44.5073  -14.5961 C   0  0  2  0  0  0  0  0  0  0  0  0
   41.5414   43.6591  -13.7516 O   0  0  0  0  0  0  0  0  0  0  0  0
   32.7210   35.0631  -16.9031 C   0  0  2  0  0  0  0  0  0  0  0  0
   33.7675   35.9905  -17.2523 O   0  0  0  0  0  0  0  0  0  0  0  0
   36.8497   36.6608  -15.0095 C   0  0  2  0  0  0  0  0  0  0  0  0
   36.9468   37.4628  -16.1978 O   0  0  0  0  0  0  0  0  0  0  0  0
   35.4967   41.3061  -15.0741 C   0  0  0  0  0  0  0  0  0  0  0  0
   34.7034   40.4723  -15.9217 O   0  0  0  0  0  0  0  0  0  0  0  0
   39.2672   44.2070  -14.4208 C   0  0  1  0  0  0  0  0  0  0  0  0
   39.0389   42.8269  -14.7561 O   0  0  0  0  0  0  0  0  0  0  0  0
   32.5319   34.0403  -18.0263 C   0  0  0  0  0  0  0  0  0  0  0  0
   33.6856   33.1308  -18.0799 O   0  0  0  0  0  0  0  0  0  0  0  0
   38.1667   35.9116  -14.7743 C   0  0  1  0  0  0  0  0  0  0  0  0
   39.2273   36.8443  -14.5549 O   0  0  0  0  0  0  0  0  0  0  0  0
   38.7902   44.4595  -12.9900 C   0  0  0  0  0  0  0  0  0  0  0  0
   38.8999   45.8938  -12.6896 N   0  0  0  0  0  0  0  0  0  0  0  0
  1  2  1  1  0  0  0
  1  7  1  0  0  0  0
  1 30  1  0  0  0  0
  3  4  1  6  0  0  0
  3  9  1  0  0  0  0
  3 39  1  0  0  0  0
  5 10  1  0  0  0  0
  5 26  1  0  0  0  0
  5 32  1  6  0  0  0
  6 12  1  0  0  0  0
  6 36  1  0  0  0  0
  6 19  1  1  0  0  0
  7  8  1  1  0  0  0
  7 14  1  0  0  0  0
  9 16  1  0  0  0  0
 10 11  1  6  0  0  0
 10 18  1  0  0  0  0
 12 13  1  1  0  0  0
 12 20  1  0  0  0  0
 14 15  1  6  0  0  0
 14 22  1  0  0  0  0
 16 17  1  6  0  0  0
 16 24  1  0  0  0  0
 18 19  1  1  0  0  0
 18 25  1  0  0  0  0
 20 21  1  6  0  0  0
 20 27  1  0  0  0  0
 22 23  1  1  0  0  0
 22 29  1  0  0  0  0
 24  2  1  1  0  0  0
 24 31  1  0  0  0  0
 25 26  1  0  0  0  0
 25 33  1  6  0  0  0
 27 28  1  1  0  0  0
 27 35  1  0  0  0  0
 29 30  1  0  0  0  0
 29 37  1  6  0  0  0
 31 32  1  6  0  0  0
 31 39  1  0  0  0  0
 33 34  1  0  0  0  0
 35 36  1  0  0  0  0
 35 41  1  1  0  0  0
 37 38  1  0  0  0  0
 39 40  1  1  0  0  0
 41 42  1  0  0  0  0
M  END
>  <CHROM.1>
-175.48142427,-159.84802784,-163.14471621,167.11425556,-153.08563729,64.82235344
-169.66055322,153.87960223,65.28877161,36.57685950,38.85228855,-15.53371149
2.25656532,0.22716645,3.06994197

>  <Name>
3c44_lig

>  <RI>
0

>  <Rbt.Current_Directory>
/home/itssahil/PROJECTS/Mol_Feturizer/New_Systems/rnas/3c44

>  <Rbt.Executable>
rbdock ($Id: //depot/dev/client3/rdock/2013.1/src/exe/rbdock.cxx#4 $)

>  <Rbt.Library>
libRbt.so (2013.1, Build901 2013/11/27)

>  <Rbt.Parameter_File>
/export/apps/rDock/src/rDock_2013.1_src/data/scripts/dock_solv.prm

>  <Rbt.Receptor>
prm/pocket_docking_4.prm

>  <SCORE>
-4.3932

>  <SCORE.INTER>
-3.10338

>  <SCORE.INTER.CONST>
1

>  <SCORE.INTER.POLAR>
-1.14834

>  <SCORE.INTER.ROT>
9

>  <SCORE.INTER.SOLV>
16.6279

>  <SCORE.INTER.VDW>
-13.3838

>  <SCORE.INTER.norm>
-0.07389

>  <SCORE.INTRA>
-1.84167

>  <SCORE.INTRA.DIHEDRAL>
-4.04474

>  <SCORE.INTRA.DIHEDRAL.0>
14.8538

>  <SCORE.INTRA.POLAR>
0

>  <SCORE.INTRA.POLAR.0>
0

>  <SCORE.INTRA.REPUL>
0

>  <SCORE.INTRA.REPUL.0>
0

>  <SCORE.INTRA.SOLV>
-1.32115

>  <SCORE.INTRA.SOLV.lig_0>
-100.951

>  <SCORE.INTRA.VDW>
0.841279

>  <SCORE.INTRA.VDW.0>
-5.71388

>  <SCORE.INTRA.norm>
-0.0438492

>  <SCORE.RESTR>
0.551847

>  <SCORE.RESTR.CAVITY>
0.551847

>  <SCORE.RESTR.norm>
0.0131392

>  <SCORE.SYSTEM>
0

>  <SCORE.SYSTEM.CONST>
0

>  <SCORE.SYSTEM.DIHEDRAL>
0

>  <SCORE.SYSTEM.SOLV>
0

>  <SCORE.SYSTEM.norm>
0

>  <SCORE.heavy>
42

>  <SCORE.norm>
-0.1046

>  <RMSD>
5.615

$$$$
3c44_lig
 OpenBabel11021811463D
libRbt.so/2013.1/901 2013/11/27
 42 45  0  0  0  0  0  0  0  0999 V2000
   32.9161   37.2445  -16.8964 C   0  0  2  0  0  0  0  0  0  0  0  0
   33.5244   37.9181  -15.7837 O   0  0  0  0  0  0  0  0  0  0  0  0
   37.0383   37.9033  -17.9841 C   0  0  2  0  0  0  0  0  0  0  0  0
   38.3648   38.0219  -18.6087 N   0  0  0  0  0  0  0  0  0  0  0  0
   36.2450   37.1435  -13.7556 C   0  0  1  0  0  0  0  0  0  0  0  0
   37.1187   39.1180  -10.1201 C   0  0  1  0  0  0  0  0  0  0  0  0
   31.3943   37.2562  -16.7178 C   0  0  2  0  0  0  0  0  0  0  0  0
   30.8996   38.6274  -16.5276 N   0  0  0  0  0  0  0  0  0  0  0  0
   36.4411   39.2883  -17.7186 C   0  0  0  0  0  0  0  0  0  0  0  0
   36.3452   36.3539  -12.4497 C   0  0  2  0  0  0  0  0  0  0  0  0
   35.0615   36.2751  -11.8271 O   0  0  0  0  0  0  0  0  0  0  0  0
   36.3375   40.3838   -9.7524 C   0  0  2  0  0  0  0  0  0  0  0  0
   36.2192   41.2189  -10.9556 N   0  0  0  0  0  0  0  0  0  0  0  0
   30.9675   36.4006  -15.5224 C   0  0  1  0  0  0  0  0  0  0  0  0
   29.5396   36.3133  -15.4914 O   0  0  0  0  0  0  0  0  0  0  0  0
   35.0070   39.0895  -17.2167 C   0  0  2  0  0  0  0  0  0  0  0  0
   34.4196   40.3981  -16.8917 N   0  0  0  0  0  0  0  0  0  0  0  0
   37.2267   37.3043  -11.6418 C   0  0  2  0  0  0  0  0  0  0  0  0
   36.4873   38.4683  -11.2374 O   0  0  0  0  0  0  0  0  0  0  0  0
   37.0620   41.1846   -8.6624 C   0  0  1  0  0  0  0  0  0  0  0  0
   36.9937   40.4979   -7.4099 O   0  0  0  0  0  0  0  0  0  0  0  0
   31.5627   34.9972  -15.6496 C   0  0  2  0  0  0  0  0  0  0  0  0
   31.2534   34.2362  -14.4791 O   0  0  0  0  0  0  0  0  0  0  0  0
   34.9237   38.1882  -15.9784 C   0  0  2  0  0  0  0  0  0  0  0  0
   38.2521   37.6937  -12.6948 C   0  0  2  0  0  0  0  0  0  0  0  0
   37.5864   37.6183  -13.9741 O   0  0  0  0  0  0  0  0  0  0  0  0
   38.5322   41.4008   -9.0248 C   0  0  2  0  0  0  0  0  0  0  0  0
   38.6059   42.2749  -10.1547 O   0  0  0  0  0  0  0  0  0  0  0  0
   33.0802   35.0975  -15.8126 C   0  0  2  0  0  0  0  0  0  0  0  0
   33.4044   35.8921  -16.9706 O   0  0  0  0  0  0  0  0  0  0  0  0
   35.7088   36.8836  -16.0982 C   0  0  2  0  0  0  0  0  0  0  0  0
   35.8029   36.2646  -14.8048 O   0  0  0  0  0  0  0  0  0  0  0  0
   39.4374   36.7279  -12.6340 C   0  0  0  0  0  0  0  0  0  0  0  0
   40.1249   36.9091  -11.3940 O   0  0  0  0  0  0  0  0  0  0  0  0
   39.1682   40.0475   -9.3534 C   0  0  1  0  0  0  0  0  0  0  0  0
   38.4657   39.4741  -10.4701 O   0  0  0  0  0  0  0  0  0  0  0  0
   33.6237   33.6768  -15.9840 C   0  0  0  0  0  0  0  0  0  0  0  0
   35.0707   33.7176  -16.2399 O   0  0  0  0  0  0  0  0  0  0  0  0
   37.1124   37.1381  -16.6604 C   0  0  1  0  0  0  0  0  0  0  0  0
   37.7965   35.8972  -16.8478 O   0  0  0  0  0  0  0  0  0  0  0  0
   40.6504   40.1750   -9.7071 C   0  0  0  0  0  0  0  0  0  0  0  0
   40.7912   41.0119  -10.9069 N   0  0  0  0  0  0  0  0  0  0  0  0
  1  2  1  1  0  0  0
  1  7  1  0  0  0  0
  1 30  1  0  0  0  0
  3  4  1  1  0  0  0
  3  9  1  0  0  0  0
  3 39  1  0  0  0  0
  5 10  1  0  0  0  0
  5 26  1  0  0  0  0
  5 32  1  6  0  0  0
  6 12  1  0  0  0  0
  6 36  1  0  0  0  0
  6 19  1  6  0  0  0
  7  8  1  1  0  0  0
  7 14  1  0  0  0  0
  9 16  1  0  0  0  0
 10 11  1  1  0  0  0
 10 18  1  0  0  0  0
 12 13  1  6  0  0  0
 12 20  1  0  0  0  0
 14 15  1  6  0  0  0
 14 22  1  0  0  0  0
 16 17  1  1  0  0  0
 16 24  1  0  0  0  0
 18 19  1  6  0  0  0
 18 25  1  0  0  0  0
 20 21  1  1  0  0  0
 20 27  1  0  0  0  0
 22 23  1  1  0  0  0
 22 29  1  0  0  0  0
 24  2  1  6  0  0  0
 24 31  1  0  0  0  0
 25 26  1  0  0  0  0
 25 33  1  6  0  0  0
 27 28  1  6  0  0  0
 27 35  1  0  0  0  0
 29 30  1  0  0  0  0
 29 37  1  6  0  0  0
 31 32  1  1  0  0  0
 31 39  1  0  0  0  0
 33 34  1  0  0  0  0
 35 36  1  0  0  0  0
 35 41  1  6  0  0  0
 37 38  1  0  0  0  0
 39 40  1  6  0  0  0
 41 42  1  0  0  0  0
M  END
>  <CHROM.1>
-168.71564275,-178.16758585,177.70847725,159.58875301,60.54261920,-66.66529771
176.03998751,-49.49412902,-61.79604402,35.87169198,37.86764224,-13.76615276
2.21690528,-0.20255004,-1.94984115

>  <Name>
3c44_lig

>  <RI>
0

>  <Rbt.Current_Directory>
/home/itssahil/PROJECTS/Mol_Feturizer/New_Systems/rnas/3c44

>  <Rbt.Executable>
rbdock ($Id: //depot/dev/client3/rdock/2013.1/src/exe/rbdock.cxx#4 $)

>  <Rbt.Library>
libRbt.so (2013.1, Build901 2013/11/27)

>  <Rbt.Parameter_File>
/export/apps/rDock/src/rDock_2013.1_src/data/scripts/dock_solv.prm

>  <Rbt.Receptor>
prm/pocket_docking_5.prm

>  <SCORE>
-11.3121

>  <SCORE.INTER>
-9.19321

>  <SCORE.INTER.CONST>
1

>  <SCORE.INTER.POLAR>
-2.02368

>  <SCORE.INTER.ROT>
9

>  <SCORE.INTER.SOLV>
17.6548

>  <SCORE.INTER.VDW>
-14.8682

>  <SCORE.INTER.norm>
-0.218886

>  <SCORE.INTRA>
-2.14675

>  <SCORE.INTRA.DIHEDRAL>
-11.2297

>  <SCORE.INTRA.DIHEDRAL.0>
14.8538

>  <SCORE.INTRA.POLAR>
0

>  <SCORE.INTRA.POLAR.0>
0

>  <SCORE.INTRA.REPUL>
0

>  <SCORE.INTRA.REPUL.0>
0

>  <SCORE.INTRA.SOLV>
-1.07067

>  <SCORE.INTRA.SOLV.lig_0>
-100.951

>  <SCORE.INTRA.VDW>
4.00344

>  <SCORE.INTRA.VDW.0>
-5.71388

>  <SCORE.INTRA.norm>
-0.0511131

>  <SCORE.RESTR>
0.0278336

>  <SCORE.RESTR.CAVITY>
0.0278336

>  <SCORE.RESTR.norm>
0.000662705

>  <SCORE.SYSTEM>
0

>  <SCORE.SYSTEM.CONST>
0

>  <SCORE.SYSTEM.DIHEDRAL>
0

>  <SCORE.SYSTEM.SOLV>
0

>  <SCORE.SYSTEM.norm>
0

>  <SCORE.heavy>
42

>  <SCORE.norm>
-0.269336

>  <RMSD>
5.622

$$$$
3c44_lig
 OpenBabel11021811463D
libRbt.so/2013.1/901 2013/11/27
 42 45  0  0  0  0  0  0  0  0999 V2000
   33.4817   36.2967  -14.9928 C   0  0  2  0  0  0  0  0  0  0  0  0
   34.2063   35.1279  -15.4057 O   0  0  0  0  0  0  0  0  0  0  0  0
   37.6291   33.4193  -13.8073 C   0  0  2  0  0  0  0  0  0  0  0  0
   38.9451   32.9883  -13.3112 N   0  0  0  0  0  0  0  0  0  0  0  0
   36.3056   37.2892  -12.9130 C   0  0  1  0  0  0  0  0  0  0  0  0
   39.0676   40.3246  -13.6908 C   0  0  1  0  0  0  0  0  0  0  0  0
   31.9893   35.9586  -14.9129 C   0  0  2  0  0  0  0  0  0  0  0  0
   31.7614   34.7960  -14.0426 N   0  0  0  0  0  0  0  0  0  0  0  0
   37.6899   33.7196  -15.3078 C   0  0  0  0  0  0  0  0  0  0  0  0
   36.0505   38.1901  -14.1223 C   0  0  2  0  0  0  0  0  0  0  0  0
   36.6239   37.6079  -15.2945 O   0  0  0  0  0  0  0  0  0  0  0  0
   40.5216   40.0450  -14.0849 C   0  0  2  0  0  0  0  0  0  0  0  0
   41.0031   38.9044  -13.2936 N   0  0  0  0  0  0  0  0  0  0  0  0
   31.4098   35.6663  -16.2992 C   0  0  1  0  0  0  0  0  0  0  0  0
   29.9910   35.5135  -16.1942 O   0  0  0  0  0  0  0  0  0  0  0  0
   36.2624   34.0084  -15.7840 C   0  0  2  0  0  0  0  0  0  0  0  0
   36.2879   34.3622  -17.2113 N   0  0  0  0  0  0  0  0  0  0  0  0
   36.8836   39.4048  -13.7180 C   0  0  2  0  0  0  0  0  0  0  0  0
   38.2880   39.1248  -13.8383 O   0  0  0  0  0  0  0  0  0  0  0  0
   41.4158   41.2588  -13.7999 C   0  0  1  0  0  0  0  0  0  0  0  0
   41.1268   42.3179  -14.7163 O   0  0  0  0  0  0  0  0  0  0  0  0
   31.7305   36.8211  -17.2500 C   0  0  2  0  0  0  0  0  0  0  0  0
   31.2841   36.4955  -18.5690 O   0  0  0  0  0  0  0  0  0  0  0  0
   35.5875   35.1439  -15.0045 C   0  0  2  0  0  0  0  0  0  0  0  0
   36.5119   39.5189  -12.2480 C   0  0  2  0  0  0  0  0  0  0  0  0
   36.2046   38.1843  -11.7900 O   0  0  0  0  0  0  0  0  0  0  0  0
   41.2077   41.7721  -12.3741 C   0  0  2  0  0  0  0  0  0  0  0  0
   41.7049   40.7959  -11.4544 O   0  0  0  0  0  0  0  0  0  0  0  0
   33.2396   37.0691  -17.2634 C   0  0  2  0  0  0  0  0  0  0  0  0
   33.7069   37.3642  -15.9324 O   0  0  0  0  0  0  0  0  0  0  0  0
   35.7051   35.0192  -13.4868 C   0  0  2  0  0  0  0  0  0  0  0  0
   35.3052   36.2566  -12.8754 O   0  0  0  0  0  0  0  0  0  0  0  0
   35.3021   40.4438  -12.0983 C   0  0  0  0  0  0  0  0  0  0  0  0
   34.2088   39.9082  -12.8473 O   0  0  0  0  0  0  0  0  0  0  0  0
   39.7131   42.0110  -12.1442 C   0  0  1  0  0  0  0  0  0  0  0  0
   39.0203   40.7631  -12.3237 O   0  0  0  0  0  0  0  0  0  0  0  0
   33.5062   38.2599  -18.1877 C   0  0  0  0  0  0  0  0  0  0  0  0
   33.0371   39.5024  -17.5577 O   0  0  0  0  0  0  0  0  0  0  0  0
   37.1406   34.6716  -13.0750 C   0  0  1  0  0  0  0  0  0  0  0  0
   37.2090   34.4721  -11.6613 O   0  0  0  0  0  0  0  0  0  0  0  0
   39.4215   42.5478  -10.7424 C   0  0  0  0  0  0  0  0  0  0  0  0
   37.9801   42.8024  -10.6119 N   0  0  0  0  0  0  0  0  0  0  0  0
  1  2  1  6  0  0  0
  1  7  1  0  0  0  0
  1 30  1  0  0  0  0
  3  4  1  1  0  0  0
  3  9  1  0  0  0  0
  3 39  1  0  0  0  0
  5 10  1  0  0  0  0
  5 26  1  0  0  0  0
  5 32  1  1  0  0  0
  6 12  1  0  0  0  0
  6 36  1  0  0  0  0
  6 19  1  1  0  0  0
  7  8  1  1  0  0  0
  7 14  1  0  0  0  0
  9 16  1  0  0  0  0
 10 11  1  6  0  0  0
 10 18  1  0  0  0  0
 12 13  1  1  0  0  0
 12 20  1  0  0  0  0
 14 15  1  1  0  0  0
 14 22  1  0  0  0  0
 16 17  1  6  0  0  0
 16 24  1  0  0  0  0
 18 19  1  1  0  0  0
 18 25  1  0  0  0  0
 20 21  1  6  0  0  0
 20 27  1  0  0  0  0
 22 23  1  6  0  0  0
 22 29  1  0  0  0  0
 24  2  1  1  0  0  0
 24 31  1  0  0  0  0
 25 26  1  0  0  0  0
 25 33  1  6  0  0  0
 27 28  1  1  0  0  0
 27 35  1  0  0  0  0
 29 30  1  0  0  0  0
 29 37  1  6  0  0  0
 31 32  1  1  0  0  0
 31 39  1  0  0  0  0
 33 34  1  0  0  0  0
 35 36  1  0  0  0  0
 35 41  1  1  0  0  0
 37 38  1  0  0  0  0
 39 40  1  1  0  0  0
 41 42  1  0  0  0  0
M  END
>  <CHROM.1>
-156.14371826,95.45665717,-169.32070194,169.76029563,-167.58693072,59.16481271
71.38635402,-78.73204571,177.78627954,36.30052819,37.78733030,-14.19978519
2.53409053,0.45403257,-3.10048519

>  <Name>
3c44_lig

>  <RI>
0

>  <Rbt.Current_Directory>
/home/itssahil/PROJECTS/Mol_Feturizer/New_Systems/rnas/3c44

>  <Rbt.Executable>
rbdock ($Id: //depot/dev/client3/rdock/2013.1/src/exe/rbdock.cxx#4 $)

>  <Rbt.Library>
libRbt.so (2013.1, Build901 2013/11/27)

>  <Rbt.Parameter_File>
/export/apps/rDock/src/rDock_2013.1_src/data/scripts/dock_solv.prm

>  <Rbt.Receptor>
prm/pocket_docking_4.prm

>  <SCORE>
-15.7375

>  <SCORE.INTER>
-17.1017

>  <SCORE.INTER.CONST>
1

>  <SCORE.INTER.POLAR>
-3.29011

>  <SCORE.INTER.ROT>
9

>  <SCORE.INTER.SOLV>
16.1306

>  <SCORE.INTER.VDW>
-15.411

>  <SCORE.INTER.norm>
-0.407184

>  <SCORE.INTRA>
1.20276

>  <SCORE.INTRA.DIHEDRAL>
-3.60058

>  <SCORE.INTRA.DIHEDRAL.0>
14.8538

>  <SCORE.INTRA.POLAR>
0

>  <SCORE.INTRA.POLAR.0>
0

>  <SCORE.INTRA.REPUL>
0.1836

>  <SCORE.INTRA.REPUL.0>
0

>  <SCORE.INTRA.SOLV>
-1.64677

>  <SCORE.INTRA.SOLV.lig_0>
-100.951

>  <SCORE.INTRA.VDW>
2.90843

>  <SCORE.INTRA.VDW.0>
-5.71388

>  <SCORE.INTRA.norm>
0.0286372

>  <SCORE.RESTR>
0.161497

>  <SCORE.RESTR.CAVITY>
0.161497

>  <SCORE.RESTR.norm>
0.00384517

>  <SCORE.SYSTEM>
0

>  <SCORE.SYSTEM.CONST>
0

>  <SCORE.SYSTEM.DIHEDRAL>
0

>  <SCORE.SYSTEM.SOLV>
0

>  <SCORE.SYSTEM.norm>
0

>  <SCORE.heavy>
42

>  <SCORE.norm>
-0.374702

>  <RMSD>
5.667

$$$$
3c44_lig
 OpenBabel11021811463D
libRbt.so/2013.1/901 2013/11/27
 42 45  0  0  0  0  0  0  0  0999 V2000
   33.4968   35.6919  -16.2791 C   0  0  2  0  0  0  0  0  0  0  0  0
   34.3687   34.5518  -16.3195 O   0  0  0  0  0  0  0  0  0  0  0  0
   38.2474   33.7611  -17.5524 C   0  0  2  0  0  0  0  0  0  0  0  0
   39.6580   33.6908  -17.9635 N   0  0  0  0  0  0  0  0  0  0  0  0
   36.7984   35.9642  -14.1192 C   0  0  1  0  0  0  0  0  0  0  0  0
   36.7359   40.0274  -12.8476 C   0  0  1  0  0  0  0  0  0  0  0  0
   32.3089   35.3818  -15.3622 C   0  0  2  0  0  0  0  0  0  0  0  0
   32.7703   34.9559  -14.0330 N   0  0  0  0  0  0  0  0  0  0  0  0
   37.4863   34.7789  -18.4068 C   0  0  0  0  0  0  0  0  0  0  0  0
   36.4386   36.3880  -12.6944 C   0  0  2  0  0  0  0  0  0  0  0  0
   35.0372   36.6516  -12.6026 O   0  0  0  0  0  0  0  0  0  0  0  0
   35.5226   40.4044  -11.9911 C   0  0  2  0  0  0  0  0  0  0  0  0
   34.3151   40.2721  -12.8179 N   0  0  0  0  0  0  0  0  0  0  0  0
   31.4179   34.2880  -15.9560 C   0  0  1  0  0  0  0  0  0  0  0  0
   30.2451   34.1457  -15.1487 O   0  0  0  0  0  0  0  0  0  0  0  0
   36.0034   34.6865  -18.0322 C   0  0  2  0  0  0  0  0  0  0  0  0
   35.2465   35.6945  -18.7899 N   0  0  0  0  0  0  0  0  0  0  0  0
   37.1945   37.7133  -12.6219 C   0  0  2  0  0  0  0  0  0  0  0  0
   36.5403   38.7191  -13.4127 O   0  0  0  0  0  0  0  0  0  0  0  0
   35.6254   41.8516  -11.4918 C   0  0  1  0  0  0  0  0  0  0  0  0
   36.6520   41.9667  -10.5030 O   0  0  0  0  0  0  0  0  0  0  0  0
   31.0138   34.6652  -17.3825 C   0  0  2  0  0  0  0  0  0  0  0  0
   30.2741   33.5926  -17.9718 O   0  0  0  0  0  0  0  0  0  0  0  0
   35.7480   34.8982  -16.5347 C   0  0  2  0  0  0  0  0  0  0  0  0
   38.5065   37.3204  -13.2827 C   0  0  2  0  0  0  0  0  0  0  0  0
   38.2014   36.2692  -14.2246 O   0  0  0  0  0  0  0  0  0  0  0  0
   35.9416   42.8087  -12.6423 C   0  0  2  0  0  0  0  0  0  0  0  0
   34.8150   42.8620  -13.5221 O   0  0  0  0  0  0  0  0  0  0  0  0
   32.2675   34.9436  -18.2130 C   0  0  2  0  0  0  0  0  0  0  0  0
   33.0395   36.0003  -17.6091 O   0  0  0  0  0  0  0  0  0  0  0  0
   36.6549   34.0760  -15.6213 C   0  0  2  0  0  0  0  0  0  0  0  0
   36.5357   34.5585  -14.2731 O   0  0  0  0  0  0  0  0  0  0  0  0
   39.4893   36.8342  -12.2155 C   0  0  0  0  0  0  0  0  0  0  0  0
   40.7789   36.6675  -12.8089 O   0  0  0  0  0  0  0  0  0  0  0  0
   37.1785   42.3001  -13.3874 C   0  0  1  0  0  0  0  0  0  0  0  0
   36.8908   40.9886  -13.9038 O   0  0  0  0  0  0  0  0  0  0  0  0
   31.8131   35.3623  -19.6136 C   0  0  0  0  0  0  0  0  0  0  0  0
   32.9781   35.5180  -20.4965 O   0  0  0  0  0  0  0  0  0  0  0  0
   38.1155   34.1590  -16.0801 C   0  0  1  0  0  0  0  0  0  0  0  0
   38.9322   33.3131  -15.2674 O   0  0  0  0  0  0  0  0  0  0  0  0
   37.5750   43.2174  -14.5449 C   0  0  0  0  0  0  0  0  0  0  0  0
   38.1707   44.4475  -14.0050 N   0  0  0  0  0  0  0  0  0  0  0  0
  1  2  1  6  0  0  0
  1  7  1  0  0  0  0
  1 30  1  0  0  0  0
  3  4  1  6  0  0  0
  3  9  1  0  0  0  0
  3 39  1  0  0  0  0
  5 10  1  0  0  0  0
  5 26  1  0  0  0  0
  5 32  1  1  0  0  0
  6 12  1  0  0  0  0
  6 36  1  0  0  0  0
  6 19  1  6  0  0  0
  7  8  1  1  0  0  0
  7 14  1  0  0  0  0
  9 16  1  0  0  0  0
 10 11  1  6  0  0  0
 10 18  1  0  0  0  0
 12 13  1  6  0  0  0
 12 20  1  0  0  0  0
 14 15  1  1  0  0  0
 14 22  1  0  0  0  0
 16 17  1  6  0  0  0
 16 24  1  0  0  0  0
 18 19  1  6  0  0  0
 18 25  1  0  0  0  0
 20 21  1  1  0  0  0
 20 27  1  0  0  0  0
 22 23  1  6  0  0  0
 22 29  1  0  0  0  0
 24  2  1  6  0  0  0
 24 31  1  0  0  0  0
 25 26  1  0  0  0  0
 25 33  1  1  0  0  0
 27 28  1  6  0  0  0
 27 35  1  0  0  0  0
 29 30  1  0  0  0  0
 29 37  1  6  0  0  0
 31 32  1  1  0  0  0
 31 39  1  0  0  0  0
 33 34  1  0  0  0  0
 35 36  1  0  0  0  0
 35 41  1  6  0  0  0
 37 38  1  0  0  0  0
 39 40  1  1  0  0  0
 41 42  1  0  0  0  0
M  END
>  <CHROM.1>
-150.08536886,171.67198973,-96.83982447,148.95576350,-98.48592101,-170.99380646
-174.55881590,-55.17820515,73.10004288,35.63459895,37.05148808,-15.05819428
1.98395563,0.26940867,-2.64494546

>  <Name>
3c44_lig

>  <RI>
224

>  <Rbt.Current_Directory>
/home/itssahil/PROJECTS/Mol_Feturizer/New_Systems/rnas/3c44

>  <Rbt.Executable>
rbdock ($Id: //depot/dev/client3/rdock/2013.1/src/exe/rbdock.cxx#4 $)

>  <Rbt.Library>
libRbt.so (2013.1, Build901 2013/11/27)

>  <Rbt.Parameter_File>
/export/apps/rDock/src/rDock_2013.1_src/data/scripts/dock_solv.prm

>  <Rbt.Receptor>
prm/pocket_docking_8.prm

>  <SCORE>
-3.91063

>  <SCORE.INTER>
-7.9188

>  <SCORE.INTER.CONST>
1

>  <SCORE.INTER.POLAR>
-0.997068

>  <SCORE.INTER.ROT>
9

>  <SCORE.INTER.SOLV>
17.3348

>  <SCORE.INTER.VDW>
-17.3339

>  <SCORE.INTER.norm>
-0.188543

>  <SCORE.INTRA>
4.00817

>  <SCORE.INTRA.DIHEDRAL>
4.04542

>  <SCORE.INTRA.DIHEDRAL.0>
14.8538

>  <SCORE.INTRA.POLAR>
0

>  <SCORE.INTRA.POLAR.0>
0

>  <SCORE.INTRA.REPUL>
0

>  <SCORE.INTRA.REPUL.0>
0

>  <SCORE.INTRA.SOLV>
0.486342

>  <SCORE.INTRA.SOLV.lig_0>
-100.951

>  <SCORE.INTRA.VDW>
1.74229

>  <SCORE.INTRA.VDW.0>
-5.71388

>  <SCORE.INTRA.norm>
0.0954327

>  <SCORE.RESTR>
0

>  <SCORE.RESTR.CAVITY>
0

>  <SCORE.RESTR.norm>
0

>  <SCORE.SYSTEM>
0

>  <SCORE.SYSTEM.CONST>
0

>  <SCORE.SYSTEM.DIHEDRAL>
0

>  <SCORE.SYSTEM.SOLV>
0

>  <SCORE.SYSTEM.norm>
0

>  <SCORE.heavy>
42

>  <SCORE.norm>
-0.0931101

>  <RMSD>
5.695

$$$$
3c44_lig
 OpenBabel11021811463D
libRbt.so/2013.1/901 2013/11/27
 42 45  0  0  0  0  0  0  0  0999 V2000
   35.7569   37.4787  -16.0481 C   0  0  2  0  0  0  0  0  0  0  0  0
   34.7814   36.7230  -15.3138 O   0  0  0  0  0  0  0  0  0  0  0  0
   34.9989   33.6100  -12.5841 C   0  0  2  0  0  0  0  0  0  0  0  0
   35.1910   32.4031  -11.7652 N   0  0  0  0  0  0  0  0  0  0  0  0
   37.7702   37.3123  -12.9932 C   0  0  1  0  0  0  0  0  0  0  0  0
   39.2355   40.1578  -10.5019 C   0  0  1  0  0  0  0  0  0  0  0  0
   35.0629   38.6608  -16.7329 C   0  0  2  0  0  0  0  0  0  0  0  0
   34.3173   39.4679  -15.7563 N   0  0  0  0  0  0  0  0  0  0  0  0
   34.3647   33.2526  -13.9314 C   0  0  0  0  0  0  0  0  0  0  0  0
   39.2336   37.6609  -13.2685 C   0  0  2  0  0  0  0  0  0  0  0  0
   40.0908   36.7497  -12.5780 O   0  0  0  0  0  0  0  0  0  0  0  0
   40.6360   40.7780  -10.4623 C   0  0  2  0  0  0  0  0  0  0  0  0
   41.5493   39.8155   -9.8310 N   0  0  0  0  0  0  0  0  0  0  0  0
   34.1021   38.1853  -17.8256 C   0  0  1  0  0  0  0  0  0  0  0  0
   33.6013   39.3200  -18.5390 O   0  0  0  0  0  0  0  0  0  0  0  0
   34.0519   34.5628  -14.6619 C   0  0  2  0  0  0  0  0  0  0  0  0
   33.4964   34.2589  -15.9894 N   0  0  0  0  0  0  0  0  0  0  0  0
   39.3070   39.0229  -12.5812 C   0  0  2  0  0  0  0  0  0  0  0  0
   39.2932   38.8758  -11.1518 O   0  0  0  0  0  0  0  0  0  0  0  0
   40.6434   42.0772   -9.6461 C   0  0  1  0  0  0  0  0  0  0  0  0
   39.9513   43.1124  -10.3491 O   0  0  0  0  0  0  0  0  0  0  0  0
   34.8363   37.2560  -18.7939 C   0  0  2  0  0  0  0  0  0  0  0  0
   33.9108   36.7276  -19.7475 O   0  0  0  0  0  0  0  0  0  0  0  0
   35.2819   35.4627  -14.8341 C   0  0  2  0  0  0  0  0  0  0  0  0
   37.9945   39.6369  -13.0420 C   0  0  2  0  0  0  0  0  0  0  0  0
   37.0703   38.5455  -13.2422 O   0  0  0  0  0  0  0  0  0  0  0  0
   39.9746   41.8752   -8.2854 C   0  0  2  0  0  0  0  0  0  0  0  0
   40.7896   41.0056   -7.4944 O   0  0  0  0  0  0  0  0  0  0  0  0
   35.4819   36.1101  -18.0133 C   0  0  2  0  0  0  0  0  0  0  0  0
   36.3915   36.6323  -17.0248 O   0  0  0  0  0  0  0  0  0  0  0  0
   36.0972   35.6616  -13.5581 C   0  0  2  0  0  0  0  0  0  0  0  0
   37.3589   36.2647  -13.8888 O   0  0  0  0  0  0  0  0  0  0  0  0
   38.2221   40.4102  -14.3426 C   0  0  0  0  0  0  0  0  0  0  0  0
   38.5575   39.4882  -15.3820 O   0  0  0  0  0  0  0  0  0  0  0  0
   38.5882   41.2618   -8.4983 C   0  0  1  0  0  0  0  0  0  0  0  0
   38.7484   39.9948   -9.1604 O   0  0  0  0  0  0  0  0  0  0  0  0
   36.2423   35.2368  -19.0146 C   0  0  0  0  0  0  0  0  0  0  0  0
   35.2962   34.4441  -19.8131 O   0  0  0  0  0  0  0  0  0  0  0  0
   36.3272   34.3261  -12.8408 C   0  0  1  0  0  0  0  0  0  0  0  0
   37.0135   34.5459  -11.6064 O   0  0  0  0  0  0  0  0  0  0  0  0
   37.8418   41.0469   -7.1811 C   0  0  0  0  0  0  0  0  0  0  0  0
   38.5580   40.0471   -6.3767 N   0  0  0  0  0  0  0  0  0  0  0  0
  1  2  1  6  0  0  0
  1  7  1  0  0  0  0
  1 30  1  0  0  0  0
  3  4  1  1  0  0  0
  3  9  1  0  0  0  0
  3 39  1  0  0  0  0
  5 10  1  0  0  0  0
  5 26  1  0  0  0  0
  5 32  1  6  0  0  0
  6 12  1  0  0  0  0
  6 36  1  0  0  0  0
  6 19  1  1  0  0  0
  7  8  1  1  0  0  0
  7 14  1  0  0  0  0
  9 16  1  0  0  0  0
 10 11  1  1  0  0  0
 10 18  1  0  0  0  0
 12 13  1  1  0  0  0
 12 20  1  0  0  0  0
 14 15  1  6  0  0  0
 14 22  1  0  0  0  0
 16 17  1  6  0  0  0
 16 24  1  0  0  0  0
 18 19  1  1  0  0  0
 18 25  1  0  0  0  0
 20 21  1  6  0  0  0
 20 27  1  0  0  0  0
 22 23  1  6  0  0  0
 22 29  1  0  0  0  0
 24  2  1  1  0  0  0
 24 31  1  0  0  0  0
 25 26  1  0  0  0  0
 25 33  1  6  0  0  0
 27 28  1  1  0  0  0
 27 35  1  0  0  0  0
 29 30  1  0  0  0  0
 29 37  1  6  0  0  0
 31 32  1  6  0  0  0
 31 39  1  0  0  0  0
 33 34  1  0  0  0  0
 35 36  1  0  0  0  0
 35 41  1  1  0  0  0
 37 38  1  0  0  0  0
 39 40  1  1  0  0  0
 41 42  1  0  0  0  0
M  END
>  <CHROM.1>
169.42757883,168.10240715,-80.51586087,-174.59007577,-155.35679743,66.75740585
-73.85020053,137.24315796,-64.98865616,37.10640494,37.84966782,-13.46814074
-2.87577338,1.07177498,2.30431333

>  <Name>
3c44_lig

>  <RI>
0

>  <Rbt.Current_Directory>
/home/itssahil/PROJECTS/Mol_Feturizer/New_Systems/rnas/3c44

>  <Rbt.Executable>
rbdock ($Id: //depot/dev/client3/rdock/2013.1/src/exe/rbdock.cxx#4 $)

>  <Rbt.Library>
libRbt.so (2013.1, Build901 2013/11/27)

>  <Rbt.Parameter_File>
/export/apps/rDock/src/rDock_2013.1_src/data/scripts/dock_solv.prm

>  <Rbt.Receptor>
prm/pocket_docking_7.prm

>  <SCORE>
-10.4025

>  <SCORE.INTER>
-10.6251

>  <SCORE.INTER.CONST>
1

>  <SCORE.INTER.POLAR>
-2.6798

>  <SCORE.INTER.ROT>
9

>  <SCORE.INTER.SOLV>
18.1184

>  <SCORE.INTER.VDW>
-13.7902

>  <SCORE.INTER.norm>
-0.252978

>  <SCORE.INTRA>
0.222514

>  <SCORE.INTRA.DIHEDRAL>
-1.85295

>  <SCORE.INTRA.DIHEDRAL.0>
14.8538

>  <SCORE.INTRA.POLAR>
0

>  <SCORE.INTRA.POLAR.0>
0

>  <SCORE.INTRA.REPUL>
0

>  <SCORE.INTRA.REPUL.0>
0

>  <SCORE.INTRA.SOLV>
-0.571165

>  <SCORE.INTRA.SOLV.lig_0>
-100.951

>  <SCORE.INTRA.VDW>
1.43457

>  <SCORE.INTRA.VDW.0>
-5.71388

>  <SCORE.INTRA.norm>
0.00529795

>  <SCORE.RESTR>
0

>  <SCORE.RESTR.CAVITY>
0

>  <SCORE.RESTR.norm>
0

>  <SCORE.SYSTEM>
0

>  <SCORE.SYSTEM.CONST>
0

>  <SCORE.SYSTEM.DIHEDRAL>
0

>  <SCORE.SYSTEM.SOLV>
0

>  <SCORE.SYSTEM.norm>
0

>  <SCORE.heavy>
42

>  <SCORE.norm>
-0.24768

>  <RMSD>
5.703

$$$$
3c44_lig
 OpenBabel11021811463D
libRbt.so/2013.1/901 2013/11/27
 42 45  0  0  0  0  0  0  0  0999 V2000
   33.6713   35.0205  -16.5058 C   0  0  2  0  0  0  0  0  0  0  0  0
   33.8936   35.8259  -17.6736 O   0  0  0  0  0  0  0  0  0  0  0  0
   35.0725   39.7735  -18.1382 C   0  0  2  0  0  0  0  0  0  0  0  0
   35.3105   41.2239  -18.1975 N   0  0  0  0  0  0  0  0  0  0  0  0
   36.1583   37.5137  -14.5339 C   0  0  1  0  0  0  0  0  0  0  0  0
   38.6317   38.5439  -11.2268 C   0  0  1  0  0  0  0  0  0  0  0  0
   33.5325   33.5540  -16.9278 C   0  0  2  0  0  0  0  0  0  0  0  0
   34.6953   33.1238  -17.7176 N   0  0  0  0  0  0  0  0  0  0  0  0
   33.7072   39.4258  -18.7386 C   0  0  0  0  0  0  0  0  0  0  0  0
   35.8778   37.2151  -13.0604 C   0  0  2  0  0  0  0  0  0  0  0  0
   35.2674   38.3484  -12.4402 O   0  0  0  0  0  0  0  0  0  0  0  0
   37.6548   38.3025  -10.0713 C   0  0  2  0  0  0  0  0  0  0  0  0
   36.4927   39.1820  -10.2581 N   0  0  0  0  0  0  0  0  0  0  0  0
   32.2601   33.3289  -17.7485 C   0  0  1  0  0  0  0  0  0  0  0  0
   32.0921   31.9273  -17.9825 O   0  0  0  0  0  0  0  0  0  0  0  0
   33.5941   37.8984  -18.7865 C   0  0  2  0  0  0  0  0  0  0  0  0
   32.2682   37.5248  -19.3018 N   0  0  0  0  0  0  0  0  0  0  0  0
   37.3106   37.0853  -12.5473 C   0  0  2  0  0  0  0  0  0  0  0  0
   37.9485   38.3713  -12.4808 O   0  0  0  0  0  0  0  0  0  0  0  0
   38.3063   38.6222   -8.7195 C   0  0  1  0  0  0  0  0  0  0  0  0
   39.2943   37.6401   -8.3967 O   0  0  0  0  0  0  0  0  0  0  0  0
   31.0485   33.8686  -16.9862 C   0  0  2  0  0  0  0  0  0  0  0  0
   29.8790   33.7565  -17.8016 O   0  0  0  0  0  0  0  0  0  0  0  0
   33.7972   37.2379  -17.4172 C   0  0  2  0  0  0  0  0  0  0  0  0
   37.9328   36.2662  -13.6671 C   0  0  2  0  0  0  0  0  0  0  0  0
   37.2146   36.5971  -14.8754 O   0  0  0  0  0  0  0  0  0  0  0  0
   38.9713   39.9995   -8.7419 C   0  0  2  0  0  0  0  0  0  0  0  0
   37.9556   41.0016   -8.8431 O   0  0  0  0  0  0  0  0  0  0  0  0
   31.2842   35.3354  -16.6228 C   0  0  2  0  0  0  0  0  0  0  0  0
   32.4805   35.4650  -15.8294 O   0  0  0  0  0  0  0  0  0  0  0  0
   35.0292   37.7296  -16.6602 C   0  0  2  0  0  0  0  0  0  0  0  0
   34.9640   37.2745  -15.2988 O   0  0  0  0  0  0  0  0  0  0  0  0
   37.8041   34.7766  -13.3415 C   0  0  0  0  0  0  0  0  0  0  0  0
   38.3992   34.0148  -14.3943 O   0  0  0  0  0  0  0  0  0  0  0  0
   39.9188   40.0753   -9.9421 C   0  0  1  0  0  0  0  0  0  0  0  0
   39.1492   39.8813  -11.1419 O   0  0  0  0  0  0  0  0  0  0  0  0
   30.0710   35.8162  -15.8225 C   0  0  0  0  0  0  0  0  0  0  0  0
   30.2020   37.2486  -15.5193 O   0  0  0  0  0  0  0  0  0  0  0  0
   35.1208   39.2597  -16.6971 C   0  0  1  0  0  0  0  0  0  0  0  0
   36.3253   39.6929  -16.0611 O   0  0  0  0  0  0  0  0  0  0  0  0
   40.6426   41.4199  -10.0243 C   0  0  0  0  0  0  0  0  0  0  0  0
   41.1765   41.7636   -8.6990 N   0  0  0  0  0  0  0  0  0  0  0  0
  1  2  1  6  0  0  0
  1  7  1  0  0  0  0
  1 30  1  0  0  0  0
  3  4  1  1  0  0  0
  3  9  1  0  0  0  0
  3 39  1  0  0  0  0
  5 10  1  0  0  0  0
  5 26  1  0  0  0  0
  5 32  1  6  0  0  0
  6 12  1  0  0  0  0
  6 36  1  0  0  0  0
  6 19  1  6  0  0  0
  7  8  1  6  0  0  0
  7 14  1  0  0  0  0
  9 16  1  0  0  0  0
 10 11  1  1  0  0  0
 10 18  1  0  0  0  0
 12 13  1  6  0  0  0
 12 20  1  0  0  0  0
 14 15  1  1  0  0  0
 14 22  1  0  0  0  0
 16 17  1  1  0  0  0
 16 24  1  0  0  0  0
 18 19  1  6  0  0  0
 18 25  1  0  0  0  0
 20 21  1  6  0  0  0
 20 27  1  0  0  0  0
 22 23  1  6  0  0  0
 22 29  1  0  0  0  0
 24  2  1  6  0  0  0
 24 31  1  0  0  0  0
 25 26  1  0  0  0  0
 25 33  1  1  0  0  0
 27 28  1  6  0  0  0
 27 35  1  0  0  0  0
 29 30  1  0  0  0  0
 29 37  1  1  0  0  0
 31 32  1  1  0  0  0
 31 39  1  0  0  0  0
 33 34  1  0  0  0  0
 35 36  1  0  0  0  0
 35 41  1  6  0  0  0
 37 38  1  0  0  0  0
 39 40  1  6  0  0  0
 41 42  1  0  0  0  0
M  END
>  <CHROM.1>
169.42143894,170.12295147,-54.58914969,133.50631527,-161.75805349,-179.61215139
-176.33178579,171.65600537,47.08036547,35.52540227,37.31754402,-14.41253945
-3.07960696,-0.91071580,-0.43357255

>  <Name>
3c44_lig

>  <RI>
0

>  <Rbt.Current_Directory>
/home/itssahil/PROJECTS/Mol_Feturizer/New_Systems/rnas/3c44

>  <Rbt.Executable>
rbdock ($Id: //depot/dev/client3/rdock/2013.1/src/exe/rbdock.cxx#4 $)

>  <Rbt.Library>
libRbt.so (2013.1, Build901 2013/11/27)

>  <Rbt.Parameter_File>
/export/apps/rDock/src/rDock_2013.1_src/data/scripts/dock_solv.prm

>  <Rbt.Receptor>
prm/pocket_docking_5.prm

>  <SCORE>
-7.51674

>  <SCORE.INTER>
-8.19198

>  <SCORE.INTER.CONST>
1

>  <SCORE.INTER.POLAR>
-1.37021

>  <SCORE.INTER.ROT>
9

>  <SCORE.INTER.SOLV>
20.5681

>  <SCORE.INTER.VDW>
-17.35

>  <SCORE.INTER.norm>
-0.195047

>  <SCORE.INTRA>
0.652374

>  <SCORE.INTRA.DIHEDRAL>
-4.96943

>  <SCORE.INTRA.DIHEDRAL.0>
14.8538

>  <SCORE.INTRA.POLAR>
0

>  <SCORE.INTRA.POLAR.0>
0

>  <SCORE.INTRA.REPUL>
0.0781956

>  <SCORE.INTRA.REPUL.0>
0

>  <SCORE.INTRA.SOLV>
-2.15954

>  <SCORE.INTRA.SOLV.lig_0>
-100.951

>  <SCORE.INTRA.VDW>
3.82588

>  <SCORE.INTRA.VDW.0>
-5.71388

>  <SCORE.INTRA.norm>
0.0155327

>  <SCORE.RESTR>
0.0228614

>  <SCORE.RESTR.CAVITY>
0.0228614

>  <SCORE.RESTR.norm>
0.000544319

>  <SCORE.SYSTEM>
0

>  <SCORE.SYSTEM.CONST>
0

>  <SCORE.SYSTEM.DIHEDRAL>
0

>  <SCORE.SYSTEM.SOLV>
0

>  <SCORE.SYSTEM.norm>
0

>  <SCORE.heavy>
42

>  <SCORE.norm>
-0.17897

>  <RMSD>
5.727

$$$$
3c44_lig
 OpenBabel11021811463D
libRbt.so/2013.1/901 2013/11/27
 42 45  0  0  0  0  0  0  0  0999 V2000
   37.3125   39.0446  -11.5028 C   0  0  2  0  0  0  0  0  0  0  0  0
   36.0654   38.4607  -11.9098 O   0  0  0  0  0  0  0  0  0  0  0  0
   35.0481   35.8297  -14.9482 C   0  0  2  0  0  0  0  0  0  0  0  0
   34.7662   35.0445  -16.1598 N   0  0  0  0  0  0  0  0  0  0  0  0
   38.7588   37.9252  -14.1953 C   0  0  1  0  0  0  0  0  0  0  0  0
   41.2310   40.9822  -14.7994 C   0  0  1  0  0  0  0  0  0  0  0  0
   37.2765   39.3003   -9.9924 C   0  0  2  0  0  0  0  0  0  0  0  0
   36.9449   38.0694   -9.2603 N   0  0  0  0  0  0  0  0  0  0  0  0
   34.3950   37.2120  -15.0368 C   0  0  0  0  0  0  0  0  0  0  0  0
   40.2684   38.0646  -13.9941 C   0  0  2  0  0  0  0  0  0  0  0  0
   40.5364   38.9658  -12.9181 O   0  0  0  0  0  0  0  0  0  0  0  0
   40.5823   42.1576  -14.0610 C   0  0  2  0  0  0  0  0  0  0  0  0
   39.6355   42.8109  -14.9753 N   0  0  0  0  0  0  0  0  0  0  0  0
   36.2564   40.3843   -9.6354 C   0  0  1  0  0  0  0  0  0  0  0  0
   36.3708   40.6993   -8.2444 O   0  0  0  0  0  0  0  0  0  0  0  0
   34.5959   37.9102  -13.6877 C   0  0  2  0  0  0  0  0  0  0  0  0
   34.0341   39.2678  -13.7542 N   0  0  0  0  0  0  0  0  0  0  0  0
   40.6414   38.7443  -15.3100 C   0  0  2  0  0  0  0  0  0  0  0  0
   40.2081   40.1144  -15.3188 O   0  0  0  0  0  0  0  0  0  0  0  0
   41.6346   43.1837  -13.6209 C   0  0  1  0  0  0  0  0  0  0  0  0
   42.4334   42.6554  -12.5589 O   0  0  0  0  0  0  0  0  0  0  0  0
   36.5211   41.6404  -10.4675 C   0  0  2  0  0  0  0  0  0  0  0  0
   35.5013   42.6097  -10.2118 O   0  0  0  0  0  0  0  0  0  0  0  0
   36.0697   38.0040  -13.2737 C   0  0  2  0  0  0  0  0  0  0  0  0
   39.7995   37.9383  -16.2866 C   0  0  2  0  0  0  0  0  0  0  0  0
   38.6328   37.4915  -15.5623 O   0  0  0  0  0  0  0  0  0  0  0  0
   42.5524   43.5634  -14.7841 C   0  0  2  0  0  0  0  0  0  0  0  0
   41.7931   44.2918  -15.7531 O   0  0  0  0  0  0  0  0  0  0  0  0
   36.5266   41.2784  -11.9535 C   0  0  2  0  0  0  0  0  0  0  0  0
   37.5279   40.2759  -12.2173 O   0  0  0  0  0  0  0  0  0  0  0  0
   36.8404   36.6911  -13.3958 C   0  0  2  0  0  0  0  0  0  0  0  0
   38.2477   36.9518  -13.2680 O   0  0  0  0  0  0  0  0  0  0  0  0
   40.6144   36.7505  -16.8028 C   0  0  0  0  0  0  0  0  0  0  0  0
   40.8423   35.8373  -15.7272 O   0  0  0  0  0  0  0  0  0  0  0  0
   43.1250   42.2859  -15.4038 C   0  0  1  0  0  0  0  0  0  0  0  0
   42.0315   41.4828  -15.8820 O   0  0  0  0  0  0  0  0  0  0  0  0
   36.8420   42.5529  -12.7406 C   0  0  0  0  0  0  0  0  0  0  0  0
   36.7780   42.2831  -14.1843 O   0  0  0  0  0  0  0  0  0  0  0  0
   36.5538   36.0101  -14.7394 C   0  0  1  0  0  0  0  0  0  0  0  0
   37.2131   34.7432  -14.7959 O   0  0  0  0  0  0  0  0  0  0  0  0
   44.0742   42.5813  -16.5659 C   0  0  0  0  0  0  0  0  0  0  0  0
   45.2263   43.3451  -16.0672 N   0  0  0  0  0  0  0  0  0  0  0  0
  1  2  1  6  0  0  0
  1  7  1  0  0  0  0
  1 30  1  0  0  0  0
  3  4  1  6  0  0  0
  3  9  1  0  0  0  0
  3 39  1  0  0  0  0
  5 10  1  0  0  0  0
  5 26  1  0  0  0  0
  5 32  1  1  0  0  0
  6 12  1  0  0  0  0
  6 36  1  0  0  0  0
  6 19  1  6  0  0  0
  7  8  1  1  0  0  0
  7 14  1  0  0  0  0
  9 16  1  0  0  0  0
 10 11  1  1  0  0  0
 10 18  1  0  0  0  0
 12 13  1  6  0  0  0
 12 20  1  0  0  0  0
 14 15  1  1  0  0  0
 14 22  1  0  0  0  0
 16 17  1  6  0  0  0
 16 24  1  0  0  0  0
 18 19  1  1  0  0  0
 18 25  1  0  0  0  0
 20 21  1  1  0  0  0
 20 27  1  0  0  0  0
 22 23  1  6  0  0  0
 22 29  1  0  0  0  0
 24  2  1  1  0  0  0
 24 31  1  0  0  0  0
 25 26  1  0  0  0  0
 25 33  1  1  0  0  0
 27 28  1  6  0  0  0
 27 35  1  0  0  0  0
 29 30  1  0  0  0  0
 29 37  1  6  0  0  0
 31 32  1  6  0  0  0
 31 39  1  0  0  0  0
 33 34  1  0  0  0  0
 35 36  1  0  0  0  0
 35 41  1  6  0  0  0
 37 38  1  0  0  0  0
 39 40  1  1  0  0  0
 41 42  1  0  0  0  0
M  END
>  <CHROM.1>
-171.48831092,-177.62039315,-146.79800842,90.22228022,-159.58093893,67.43423226
-176.48114994,-55.40140323,62.58210109,38.64164184,39.66305887,-13.70968400
2.83877233,-0.60376724,-2.52735687

>  <Name>
3c44_lig

>  <RI>
0

>  <Rbt.Current_Directory>
/home/itssahil/PROJECTS/Mol_Feturizer/New_Systems/rnas/3c44

>  <Rbt.Executable>
rbdock ($Id: //depot/dev/client3/rdock/2013.1/src/exe/rbdock.cxx#4 $)

>  <Rbt.Library>
libRbt.so (2013.1, Build901 2013/11/27)

>  <Rbt.Parameter_File>
/export/apps/rDock/src/rDock_2013.1_src/data/scripts/dock_solv.prm

>  <Rbt.Receptor>
prm/pocket_docking_6.prm

>  <SCORE>
-14.6792

>  <SCORE.INTER>
-13.1336

>  <SCORE.INTER.CONST>
1

>  <SCORE.INTER.POLAR>
-2.85158

>  <SCORE.INTER.ROT>
9

>  <SCORE.INTER.SOLV>
16.2871

>  <SCORE.INTER.VDW>
-14.2795

>  <SCORE.INTER.norm>
-0.312704

>  <SCORE.INTRA>
-1.54561

>  <SCORE.INTRA.DIHEDRAL>
-4.24577

>  <SCORE.INTRA.DIHEDRAL.0>
14.8538

>  <SCORE.INTRA.POLAR>
0

>  <SCORE.INTRA.POLAR.0>
0

>  <SCORE.INTRA.REPUL>
0

>  <SCORE.INTRA.REPUL.0>
0

>  <SCORE.INTRA.SOLV>
-1.59257

>  <SCORE.INTRA.SOLV.lig_0>
-100.951

>  <SCORE.INTRA.VDW>
1.37356

>  <SCORE.INTRA.VDW.0>
-5.71388

>  <SCORE.INTRA.norm>
-0.0368002

>  <SCORE.RESTR>
0

>  <SCORE.RESTR.CAVITY>
0

>  <SCORE.RESTR.norm>
0

>  <SCORE.SYSTEM>
0

>  <SCORE.SYSTEM.CONST>
0

>  <SCORE.SYSTEM.DIHEDRAL>
0

>  <SCORE.SYSTEM.SOLV>
0

>  <SCORE.SYSTEM.norm>
0

>  <SCORE.heavy>
42

>  <SCORE.norm>
-0.349504

>  <RMSD>
5.765

$$$$
3c44_lig
 OpenBabel11021811463D
libRbt.so/2013.1/901 2013/11/27
 42 45  0  0  0  0  0  0  0  0999 V2000
   34.1517   36.5684  -17.1806 C   0  0  2  0  0  0  0  0  0  0  0  0
   35.5200   36.2178  -16.9225 O   0  0  0  0  0  0  0  0  0  0  0  0
   37.9339   33.0857  -18.1686 C   0  0  2  0  0  0  0  0  0  0  0  0
   38.6899   31.9929  -18.7995 N   0  0  0  0  0  0  0  0  0  0  0  0
   37.7864   37.9843  -17.9122 C   0  0  1  0  0  0  0  0  0  0  0  0
   37.9072   41.0907  -15.3285 C   0  0  1  0  0  0  0  0  0  0  0  0
   33.9017   38.0006  -16.6966 C   0  0  2  0  0  0  0  0  0  0  0  0
   34.8643   38.9332  -17.3004 N   0  0  0  0  0  0  0  0  0  0  0  0
   36.4277   32.8277  -18.2686 C   0  0  0  0  0  0  0  0  0  0  0  0
   38.9354   37.8775  -16.9086 C   0  0  2  0  0  0  0  0  0  0  0  0
   38.5363   37.0793  -15.7926 O   0  0  0  0  0  0  0  0  0  0  0  0
   39.2163   41.4791  -14.6333 C   0  0  2  0  0  0  0  0  0  0  0  0
   39.3883   40.6150  -13.4574 N   0  0  0  0  0  0  0  0  0  0  0  0
   34.0003   38.0981  -15.1721 C   0  0  1  0  0  0  0  0  0  0  0  0
   33.6056   39.4094  -14.7574 O   0  0  0  0  0  0  0  0  0  0  0  0
   35.7133   33.9164  -17.4607 C   0  0  2  0  0  0  0  0  0  0  0  0
   34.2586   33.7376  -17.5836 N   0  0  0  0  0  0  0  0  0  0  0  0
   39.0246   39.3360  -16.4639 C   0  0  2  0  0  0  0  0  0  0  0  0
   37.9145   39.6820  -15.6195 O   0  0  0  0  0  0  0  0  0  0  0  0
   39.1857   42.9424  -14.1730 C   0  0  1  0  0  0  0  0  0  0  0  0
   39.2516   43.8214  -15.2990 O   0  0  0  0  0  0  0  0  0  0  0  0
   33.0824   37.0594  -14.5250 C   0  0  2  0  0  0  0  0  0  0  0  0
   33.2596   37.0791  -13.1062 O   0  0  0  0  0  0  0  0  0  0  0  0
   36.0775   35.3360  -17.9127 C   0  0  2  0  0  0  0  0  0  0  0  0
   38.8848   40.0429  -17.8029 C   0  0  2  0  0  0  0  0  0  0  0  0
   38.0802   39.1886  -18.6443 O   0  0  0  0  0  0  0  0  0  0  0  0
   37.9086   43.2449  -13.3874 C   0  0  2  0  0  0  0  0  0  0  0  0
   37.9472   42.5295  -12.1493 O   0  0  0  0  0  0  0  0  0  0  0  0
   33.4200   35.6696  -15.0669 C   0  0  2  0  0  0  0  0  0  0  0  0
   33.2784   35.6472  -16.5010 O   0  0  0  0  0  0  0  0  0  0  0  0
   37.5775   35.5809  -18.0634 C   0  0  2  0  0  0  0  0  0  0  0  0
   37.7897   36.8208  -18.7579 O   0  0  0  0  0  0  0  0  0  0  0  0
   40.2719   40.2639  -18.4100 C   0  0  0  0  0  0  0  0  0  0  0  0
   40.1295   40.9014  -19.6813 O   0  0  0  0  0  0  0  0  0  0  0  0
   36.6983   42.8107  -14.2184 C   0  0  1  0  0  0  0  0  0  0  0  0
   36.8003   41.3973  -14.4659 O   0  0  0  0  0  0  0  0  0  0  0  0
   32.4475   34.6739  -14.4295 C   0  0  0  0  0  0  0  0  0  0  0  0
   31.0847   34.9109  -14.9269 O   0  0  0  0  0  0  0  0  0  0  0  0
   38.2466   34.4318  -18.8269 C   0  0  1  0  0  0  0  0  0  0  0  0
   39.6602   34.6369  -18.8786 O   0  0  0  0  0  0  0  0  0  0  0  0
   35.3750   43.1000  -13.5088 C   0  0  0  0  0  0  0  0  0  0  0  0
   35.3043   42.3057  -12.2744 N   0  0  0  0  0  0  0  0  0  0  0  0
  1  2  1  1  0  0  0
  1  7  1  0  0  0  0
  1 30  1  0  0  0  0
  3  4  1  6  0  0  0
  3  9  1  0  0  0  0
  3 39  1  0  0  0  0
  5 10  1  0  0  0  0
  5 26  1  0  0  0  0
  5 32  1  6  0  0  0
  6 12  1  0  0  0  0
  6 36  1  0  0  0  0
  6 19  1  1  0  0  0
  7  8  1  6  0  0  0
  7 14  1  0  0  0  0
  9 16  1  0  0  0  0
 10 11  1  1  0  0  0
 10 18  1  0  0  0  0
 12 13  1  1  0  0  0
 12 20  1  0  0  0  0
 14 15  1  1  0  0  0
 14 22  1  0  0  0  0
 16 17  1  6  0  0  0
 16 24  1  0  0  0  0
 18 19  1  1  0  0  0
 18 25  1  0  0  0  0
 20 21  1  6  0  0  0
 20 27  1  0  0  0  0
 22 23  1  1  0  0  0
 22 29  1  0  0  0  0
 24  2  1  1  0  0  0
 24 31  1  0  0  0  0
 25 26  1  0  0  0  0
 25 33  1  6  0  0  0
 27 28  1  1  0  0  0
 27 35  1  0  0  0  0
 29 30  1  0  0  0  0
 29 37  1  1  0  0  0
 31 32  1  6  0  0  0
 31 39  1  0  0  0  0
 33 34  1  0  0  0  0
 35 36  1  0  0  0  0
 35 41  1  1  0  0  0
 37 38  1  0  0  0  0
 39 40  1  1  0  0  0
 41 42  1  0  0  0  0
M  END
>  <CHROM.1>
-146.57093406,62.14739584,-59.01590738,-173.13644076,-86.42792644,178.70772334
68.00002261,85.49427129,-63.55855452,36.64922587,38.16847549,-16.16959500
1.89152560,-0.50724563,-2.62813334

>  <Name>
3c44_lig

>  <RI>
0

>  <Rbt.Current_Directory>
/home/itssahil/PROJECTS/Mol_Feturizer/New_Systems/rnas/3c44

>  <Rbt.Executable>
rbdock ($Id: //depot/dev/client3/rdock/2013.1/src/exe/rbdock.cxx#4 $)

>  <Rbt.Library>
libRbt.so (2013.1, Build901 2013/11/27)

>  <Rbt.Parameter_File>
/export/apps/rDock/src/rDock_2013.1_src/data/scripts/dock_solv.prm

>  <Rbt.Receptor>
prm/pocket_docking_6.prm

>  <SCORE>
-4.86687

>  <SCORE.INTER>
-7.82826

>  <SCORE.INTER.CONST>
1

>  <SCORE.INTER.POLAR>
-0.860088

>  <SCORE.INTER.ROT>
9

>  <SCORE.INTER.SOLV>
13.7624

>  <SCORE.INTER.VDW>
-16.5393

>  <SCORE.INTER.norm>
-0.186387

>  <SCORE.INTRA>
2.96139

>  <SCORE.INTRA.DIHEDRAL>
-3.95643

>  <SCORE.INTRA.DIHEDRAL.0>
14.8538

>  <SCORE.INTRA.POLAR>
0

>  <SCORE.INTRA.POLAR.0>
0

>  <SCORE.INTRA.REPUL>
5.99375e-05

>  <SCORE.INTRA.REPUL.0>
0

>  <SCORE.INTRA.SOLV>
3.40984

>  <SCORE.INTRA.SOLV.lig_0>
-100.951

>  <SCORE.INTRA.VDW>
3.23439

>  <SCORE.INTRA.VDW.0>
-5.71388

>  <SCORE.INTRA.norm>
0.0705093

>  <SCORE.RESTR>
0

>  <SCORE.RESTR.CAVITY>
0

>  <SCORE.RESTR.norm>
0

>  <SCORE.SYSTEM>
0

>  <SCORE.SYSTEM.CONST>
0

>  <SCORE.SYSTEM.DIHEDRAL>
0

>  <SCORE.SYSTEM.SOLV>
0

>  <SCORE.SYSTEM.norm>
0

>  <SCORE.heavy>
42

>  <SCORE.norm>
-0.115878

>  <RMSD>
5.794

$$$$
3c44_lig
 OpenBabel11021811463D
libRbt.so/2013.1/901 2013/11/27
 42 45  0  0  0  0  0  0  0  0999 V2000
   33.5978   35.7193  -15.0623 C   0  0  2  0  0  0  0  0  0  0  0  0
   34.5176   35.0598  -15.9460 O   0  0  0  0  0  0  0  0  0  0  0  0
   37.9574   32.9154  -15.0752 C   0  0  2  0  0  0  0  0  0  0  0  0
   39.2613   32.3430  -14.7060 N   0  0  0  0  0  0  0  0  0  0  0  0
   35.7116   35.8357  -12.7457 C   0  0  1  0  0  0  0  0  0  0  0  0
   37.4767   39.3235  -11.6390 C   0  0  1  0  0  0  0  0  0  0  0  0
   32.4069   34.7926  -14.7963 C   0  0  2  0  0  0  0  0  0  0  0  0
   32.8605   33.4875  -14.2943 N   0  0  0  0  0  0  0  0  0  0  0  0
   38.1326   34.0415  -16.0981 C   0  0  0  0  0  0  0  0  0  0  0  0
   37.2295   35.7286  -12.5922 C   0  0  2  0  0  0  0  0  0  0  0  0
   37.5560   35.2617  -11.2818 O   0  0  0  0  0  0  0  0  0  0  0  0
   37.3127   40.0087  -10.2783 C   0  0  2  0  0  0  0  0  0  0  0  0
   35.9827   39.6743   -9.7506 N   0  0  0  0  0  0  0  0  0  0  0  0
   31.5741   34.5788  -16.0628 C   0  0  1  0  0  0  0  0  0  0  0  0
   30.3932   33.8419  -15.7314 O   0  0  0  0  0  0  0  0  0  0  0  0
   36.7364   34.4816  -16.5510 C   0  0  2  0  0  0  0  0  0  0  0  0
   36.8618   35.6063  -17.4904 N   0  0  0  0  0  0  0  0  0  0  0  0
   37.6031   37.2060  -12.6957 C   0  0  2  0  0  0  0  0  0  0  0  0
   37.2261   37.9136  -11.5031 O   0  0  0  0  0  0  0  0  0  0  0  0
   37.4253   41.5333  -10.4088 C   0  0  1  0  0  0  0  0  0  0  0  0
   38.7739   41.9113  -10.6976 O   0  0  0  0  0  0  0  0  0  0  0  0
   31.1817   35.9313  -16.6604 C   0  0  2  0  0  0  0  0  0  0  0  0
   30.4991   35.7287  -17.9005 O   0  0  0  0  0  0  0  0  0  0  0  0
   35.8338   34.9076  -15.3864 C   0  0  2  0  0  0  0  0  0  0  0  0
   36.7091   37.6379  -13.8474 C   0  0  2  0  0  0  0  0  0  0  0  0
   35.5401   36.7909  -13.8091 O   0  0  0  0  0  0  0  0  0  0  0  0
   36.5185   42.0580  -11.5232 C   0  0  2  0  0  0  0  0  0  0  0  0
   35.1544   41.8787  -11.1319 O   0  0  0  0  0  0  0  0  0  0  0  0
   32.4381   36.7711  -16.8953 C   0  0  2  0  0  0  0  0  0  0  0  0
   33.1533   36.9528  -15.6573 O   0  0  0  0  0  0  0  0  0  0  0  0
   35.8085   33.9225  -14.2196 C   0  0  2  0  0  0  0  0  0  0  0  0
   35.1801   34.5434  -13.0863 O   0  0  0  0  0  0  0  0  0  0  0  0
   37.4641   37.4736  -15.1682 C   0  0  0  0  0  0  0  0  0  0  0  0
   38.6410   38.2840  -15.1378 O   0  0  0  0  0  0  0  0  0  0  0  0
   36.8119   41.2827  -12.8103 C   0  0  1  0  0  0  0  0  0  0  0  0
   36.5436   39.8894  -12.5730 O   0  0  0  0  0  0  0  0  0  0  0  0
   31.9931   38.1282  -17.4466 C   0  0  0  0  0  0  0  0  0  0  0  0
   31.0487   38.7651  -16.5174 O   0  0  0  0  0  0  0  0  0  0  0  0
   37.2272   33.4729  -13.8507 C   0  0  1  0  0  0  0  0  0  0  0  0
   37.1745   32.4858  -12.8184 O   0  0  0  0  0  0  0  0  0  0  0  0
   35.9572   41.7638  -13.9836 C   0  0  0  0  0  0  0  0  0  0  0  0
   36.1808   40.8828  -15.1383 N   0  0  0  0  0  0  0  0  0  0  0  0
  1  2  1  6  0  0  0
  1  7  1  0  0  0  0
  1 30  1  0  0  0  0
  3  4  1  1  0  0  0
  3  9  1  0  0  0  0
  3 39  1  0  0  0  0
  5 10  1  0  0  0  0
  5 26  1  0  0  0  0
  5 32  1  6  0  0  0
  6 12  1  0  0  0  0
  6 36  1  0  0  0  0
  6 19  1  1  0  0  0
  7  8  1  6  0  0  0
  7 14  1  0  0  0  0
  9 16  1  0  0  0  0
 10 11  1  1  0  0  0
 10 18  1  0  0  0  0
 12 13  1  6  0  0  0
 12 20  1  0  0  0  0
 14 15  1  1  0  0  0
 14 22  1  0  0  0  0
 16 17  1  6  0  0  0
 16 24  1  0  0  0  0
 18 19  1  1  0  0  0
 18 25  1  0  0  0  0
 20 21  1  6  0  0  0
 20 27  1  0  0  0  0
 22 23  1  6  0  0  0
 22 29  1  0  0  0  0
 24  2  1  6  0  0  0
 24 31  1  0  0  0  0
 25 26  1  0  0  0  0
 25 33  1  6  0  0  0
 27 28  1  1  0  0  0
 27 35  1  0  0  0  0
 29 30  1  0  0  0  0
 29 37  1  1  0  0  0
 31 32  1  1  0  0  0
 31 39  1  0  0  0  0
 33 34  1  0  0  0  0
 35 36  1  0  0  0  0
 35 41  1  6  0  0  0
 37 38  1  0  0  0  0
 39 40  1  1  0  0  0
 41 42  1  0  0  0  0
M  END
>  <CHROM.1>
-121.26230182,-52.76493917,-169.58837853,-175.31719230,-167.88056980,-59.80498284
56.72915755,-50.91306451,-173.72958062,35.53858330,36.93791217,-14.06723281
2.13453122,0.52455409,-2.80441116

>  <Name>
3c44_lig

>  <RI>
224

>  <Rbt.Current_Directory>
/home/itssahil/PROJECTS/Mol_Feturizer/New_Systems/rnas/3c44

>  <Rbt.Executable>
rbdock ($Id: //depot/dev/client3/rdock/2013.1/src/exe/rbdock.cxx#4 $)

>  <Rbt.Library>
libRbt.so (2013.1, Build901 2013/11/27)

>  <Rbt.Parameter_File>
/export/apps/rDock/src/rDock_2013.1_src/data/scripts/dock_solv.prm

>  <Rbt.Receptor>
prm/pocket_docking_3.prm

>  <SCORE>
8.18283

>  <SCORE.INTER>
-3.75317

>  <SCORE.INTER.CONST>
1

>  <SCORE.INTER.POLAR>
-1.05264

>  <SCORE.INTER.ROT>
9

>  <SCORE.INTER.SOLV>
16.7914

>  <SCORE.INTER.VDW>
-14.1905

>  <SCORE.INTER.norm>
-0.0893613

>  <SCORE.INTRA>
10.6002

>  <SCORE.INTRA.DIHEDRAL>
-5.02523

>  <SCORE.INTRA.DIHEDRAL.0>
14.8538

>  <SCORE.INTRA.POLAR>
0

>  <SCORE.INTRA.POLAR.0>
0

>  <SCORE.INTRA.REPUL>
0

>  <SCORE.INTRA.REPUL.0>
0

>  <SCORE.INTRA.SOLV>
2.79304

>  <SCORE.INTRA.SOLV.lig_0>
-100.951

>  <SCORE.INTRA.VDW>
11.7163

>  <SCORE.INTRA.VDW.0>
-5.71388

>  <SCORE.INTRA.norm>
0.252387

>  <SCORE.RESTR>
1.33576

>  <SCORE.RESTR.CAVITY>
1.33576

>  <SCORE.RESTR.norm>
0.0318038

>  <SCORE.SYSTEM>
0

>  <SCORE.SYSTEM.CONST>
0

>  <SCORE.SYSTEM.DIHEDRAL>
0

>  <SCORE.SYSTEM.SOLV>
0

>  <SCORE.SYSTEM.norm>
0

>  <SCORE.heavy>
42

>  <SCORE.norm>
0.194829

>  <RMSD>
5.809

$$$$
3c44_lig
 OpenBabel11021811463D
libRbt.so/2013.1/901 2013/11/27
 42 45  0  0  0  0  0  0  0  0999 V2000
   35.2636   37.6417  -17.5639 C   0  0  2  0  0  0  0  0  0  0  0  0
   34.6791   37.2404  -16.3152 O   0  0  0  0  0  0  0  0  0  0  0  0
   36.2027   35.3043  -12.9806 C   0  0  2  0  0  0  0  0  0  0  0  0
   36.7916   34.4572  -11.9320 N   0  0  0  0  0  0  0  0  0  0  0  0
   38.0506   38.4408  -16.0302 C   0  0  1  0  0  0  0  0  0  0  0  0
   40.5891   41.2520  -14.7049 C   0  0  1  0  0  0  0  0  0  0  0  0
   34.4303   38.7787  -18.1645 C   0  0  2  0  0  0  0  0  0  0  0  0
   34.2873   39.8855  -17.2076 N   0  0  0  0  0  0  0  0  0  0  0  0
   35.0885   34.5552  -13.7171 C   0  0  0  0  0  0  0  0  0  0  0  0
   39.5786   38.5068  -16.0300 C   0  0  2  0  0  0  0  0  0  0  0  0
   40.0720   38.3927  -14.6938 O   0  0  0  0  0  0  0  0  0  0  0  0
   40.1541   42.0113  -13.4471 C   0  0  2  0  0  0  0  0  0  0  0  0
   39.3062   43.1386  -13.8587 N   0  0  0  0  0  0  0  0  0  0  0  0
   33.0389   38.2915  -18.5766 C   0  0  1  0  0  0  0  0  0  0  0  0
   32.3592   39.3408  -19.2726 O   0  0  0  0  0  0  0  0  0  0  0  0
   34.4206   35.5420  -14.6805 C   0  0  2  0  0  0  0  0  0  0  0  0
   33.3828   34.8416  -15.4521 N   0  0  0  0  0  0  0  0  0  0  0  0
   39.7738   39.9450  -16.5058 C   0  0  2  0  0  0  0  0  0  0  0  0
   39.4290   40.8780  -15.4687 O   0  0  0  0  0  0  0  0  0  0  0  0
   41.3671   42.5568  -12.6822 C   0  0  1  0  0  0  0  0  0  0  0  0
   42.0922   41.4879  -12.0685 O   0  0  0  0  0  0  0  0  0  0  0  0
   33.1657   37.0708  -19.4899 C   0  0  2  0  0  0  0  0  0  0  0  0
   31.8654   36.5530  -19.7831 O   0  0  0  0  0  0  0  0  0  0  0  0
   35.4098   36.1912  -15.6565 C   0  0  2  0  0  0  0  0  0  0  0  0
   38.7370   40.0127  -17.6160 C   0  0  2  0  0  0  0  0  0  0  0  0
   37.6783   39.0993  -17.2551 O   0  0  0  0  0  0  0  0  0  0  0  0
   42.3096   43.3171  -13.6167 C   0  0  2  0  0  0  0  0  0  0  0  0
   41.6577   44.5110  -14.0593 O   0  0  0  0  0  0  0  0  0  0  0  0
   34.0034   35.9963  -18.7950 C   0  0  2  0  0  0  0  0  0  0  0  0
   35.3053   36.5181  -18.4633 O   0  0  0  0  0  0  0  0  0  0  0  0
   36.6684   36.7493  -14.9954 C   0  0  2  0  0  0  0  0  0  0  0  0
   37.6385   37.0630  -16.0080 O   0  0  0  0  0  0  0  0  0  0  0  0
   39.3835   39.6084  -18.9427 C   0  0  0  0  0  0  0  0  0  0  0  0
   40.4109   40.5475  -19.2674 O   0  0  0  0  0  0  0  0  0  0  0  0
   42.6556   42.4229  -14.8102 C   0  0  1  0  0  0  0  0  0  0  0  0
   41.4371   42.0950  -15.5010 O   0  0  0  0  0  0  0  0  0  0  0  0
   34.1428   34.8183  -19.7626 C   0  0  0  0  0  0  0  0  0  0  0  0
   32.8693   34.0902  -19.8577 O   0  0  0  0  0  0  0  0  0  0  0  0
   37.2573   35.7426  -14.0000 C   0  0  1  0  0  0  0  0  0  0  0  0
   38.3802   36.3184  -13.3287 O   0  0  0  0  0  0  0  0  0  0  0  0
   43.6154   43.1052  -15.7857 C   0  0  0  0  0  0  0  0  0  0  0  0
   43.8510   42.2176  -16.9330 N   0  0  0  0  0  0  0  0  0  0  0  0
  1  2  1  1  0  0  0
  1  7  1  0  0  0  0
  1 30  1  0  0  0  0
  3  4  1  1  0  0  0
  3  9  1  0  0  0  0
  3 39  1  0  0  0  0
  5 10  1  0  0  0  0
  5 26  1  0  0  0  0
  5 32  1  6  0  0  0
  6 12  1  0  0  0  0
  6 36  1  0  0  0  0
  6 19  1  6  0  0  0
  7  8  1  1  0  0  0
  7 14  1  0  0  0  0
  9 16  1  0  0  0  0
 10 11  1  1  0  0  0
 10 18  1  0  0  0  0
 12 13  1  6  0  0  0
 12 20  1  0  0  0  0
 14 15  1  6  0  0  0
 14 22  1  0  0  0  0
 16 17  1  6  0  0  0
 16 24  1  0  0  0  0
 18 19  1  1  0  0  0
 18 25  1  0  0  0  0
 20 21  1  6  0  0  0
 20 27  1  0  0  0  0
 22 23  1  1  0  0  0
 22 29  1  0  0  0  0
 24  2  1  1  0  0  0
 24 31  1  0  0  0  0
 25 26  1  0  0  0  0
 25 33  1  6  0  0  0
 27 28  1  6  0  0  0
 27 35  1  0  0  0  0
 29 30  1  0  0  0  0
 29 37  1  6  0  0  0
 31 32  1  6  0  0  0
 31 39  1  0  0  0  0
 33 34  1  0  0  0  0
 35 36  1  0  0  0  0
 35 41  1  6  0  0  0
 37 38  1  0  0  0  0
 39 40  1  1  0  0  0
 41 42  1  0  0  0  0
M  END
>  <CHROM.1>
-178.76611876,129.59674282,-168.57827614,93.60573264,-159.24470449,-63.03947876
-73.11487880,121.00850866,-177.31364784,37.59110615,38.73356145,-16.10756571
3.04298770,0.70782162,2.18318498

>  <Name>
3c44_lig

>  <RI>
224

>  <Rbt.Current_Directory>
/home/itssahil/PROJECTS/Mol_Feturizer/New_Systems/rnas/3c44

>  <Rbt.Executable>
rbdock ($Id: //depot/dev/client3/rdock/2013.1/src/exe/rbdock.cxx#4 $)

>  <Rbt.Library>
libRbt.so (2013.1, Build901 2013/11/27)

>  <Rbt.Parameter_File>
/export/apps/rDock/src/rDock_2013.1_src/data/scripts/dock_solv.prm

>  <Rbt.Receptor>
prm/pocket_docking_8.prm

>  <SCORE>
-7.62474

>  <SCORE.INTER>
-10.1825

>  <SCORE.INTER.CONST>
1

>  <SCORE.INTER.POLAR>
-1.82746

>  <SCORE.INTER.ROT>
9

>  <SCORE.INTER.SOLV>
15.2754

>  <SCORE.INTER.VDW>
-15.3886

>  <SCORE.INTER.norm>
-0.24244

>  <SCORE.INTRA>
2.55775

>  <SCORE.INTRA.DIHEDRAL>
6.47039

>  <SCORE.INTRA.DIHEDRAL.0>
14.8538

>  <SCORE.INTRA.POLAR>
0

>  <SCORE.INTRA.POLAR.0>
0

>  <SCORE.INTRA.REPUL>
0

>  <SCORE.INTRA.REPUL.0>
0

>  <SCORE.INTRA.SOLV>
-3.2699

>  <SCORE.INTRA.SOLV.lig_0>
-100.951

>  <SCORE.INTRA.VDW>
0.957508

>  <SCORE.INTRA.VDW.0>
-5.71388

>  <SCORE.INTRA.norm>
0.0608989

>  <SCORE.RESTR>
0

>  <SCORE.RESTR.CAVITY>
0

>  <SCORE.RESTR.norm>
0

>  <SCORE.SYSTEM>
0

>  <SCORE.SYSTEM.CONST>
0

>  <SCORE.SYSTEM.DIHEDRAL>
0

>  <SCORE.SYSTEM.SOLV>
0

>  <SCORE.SYSTEM.norm>
0

>  <SCORE.heavy>
42

>  <SCORE.norm>
-0.181541

>  <RMSD>
5.813

$$$$
3c44_lig
 OpenBabel11021811463D
libRbt.so/2013.1/901 2013/11/27
 42 45  0  0  0  0  0  0  0  0999 V2000
   32.3303   36.2986  -16.6272 C   0  0  2  0  0  0  0  0  0  0  0  0
   32.8701   36.5799  -15.3267 O   0  0  0  0  0  0  0  0  0  0  0  0
   35.4358   34.7140  -12.6574 C   0  0  2  0  0  0  0  0  0  0  0  0
   36.4227   33.9474  -11.8814 N   0  0  0  0  0  0  0  0  0  0  0  0
   36.6362   38.3832  -14.7665 C   0  0  1  0  0  0  0  0  0  0  0  0
   39.4418   41.3858  -13.9202 C   0  0  1  0  0  0  0  0  0  0  0  0
   31.5503   37.5216  -17.1209 C   0  0  2  0  0  0  0  0  0  0  0  0
   32.3910   38.7271  -17.0890 N   0  0  0  0  0  0  0  0  0  0  0  0
   34.5275   33.7734  -13.4545 C   0  0  0  0  0  0  0  0  0  0  0  0
   36.9191   39.4421  -15.8331 C   0  0  2  0  0  0  0  0  0  0  0  0
   37.9547   38.9899  -16.7076 O   0  0  0  0  0  0  0  0  0  0  0  0
   40.9130   41.0641  -13.6377 C   0  0  2  0  0  0  0  0  0  0  0  0
   40.9688   39.8617  -12.7950 N   0  0  0  0  0  0  0  0  0  0  0  0
   30.2985   37.7628  -16.2736 C   0  0  1  0  0  0  0  0  0  0  0  0
   29.5238   38.8103  -16.8651 O   0  0  0  0  0  0  0  0  0  0  0  0
   33.4345   34.6245  -14.1095 C   0  0  2  0  0  0  0  0  0  0  0  0
   32.5761   33.7620  -14.9356 N   0  0  0  0  0  0  0  0  0  0  0  0
   37.4739   40.5565  -14.9480 C   0  0  2  0  0  0  0  0  0  0  0  0
   38.7947   40.2315  -14.4843 O   0  0  0  0  0  0  0  0  0  0  0  0
   41.6005   42.2197  -12.8989 C   0  0  1  0  0  0  0  0  0  0  0  0
   41.7716   43.3391  -13.7721 O   0  0  0  0  0  0  0  0  0  0  0  0
   29.4622   36.4836  -16.2072 C   0  0  2  0  0  0  0  0  0  0  0  0
   28.3528   36.6800  -15.3266 O   0  0  0  0  0  0  0  0  0  0  0  0
   33.9952   35.7508  -14.9866 C   0  0  2  0  0  0  0  0  0  0  0  0
   36.4974   40.4978  -13.7839 C   0  0  2  0  0  0  0  0  0  0  0  0
   36.0423   39.1306  -13.6890 O   0  0  0  0  0  0  0  0  0  0  0  0
   40.7795   42.6629  -11.6868 C   0  0  2  0  0  0  0  0  0  0  0  0
   40.7940   41.6169  -10.7113 O   0  0  0  0  0  0  0  0  0  0  0  0
   30.3284   35.3317  -15.6954 C   0  0  2  0  0  0  0  0  0  0  0  0
   31.4693   35.1468  -16.5564 O   0  0  0  0  0  0  0  0  0  0  0  0
   35.0888   36.5812  -14.3180 C   0  0  2  0  0  0  0  0  0  0  0  0
   35.7355   37.4001  -15.3059 O   0  0  0  0  0  0  0  0  0  0  0  0
   35.3289   41.4491  -14.0502 C   0  0  0  0  0  0  0  0  0  0  0  0
   34.1418   40.9057  -13.4683 O   0  0  0  0  0  0  0  0  0  0  0  0
   39.3455   42.9548  -12.1367 C   0  0  1  0  0  0  0  0  0  0  0  0
   38.7896   41.7505  -12.6934 O   0  0  0  0  0  0  0  0  0  0  0  0
   29.4651   34.0675  -15.6919 C   0  0  0  0  0  0  0  0  0  0  0  0
   29.0238   33.7542  -17.0587 O   0  0  0  0  0  0  0  0  0  0  0  0
   36.1196   35.6782  -13.6302 C   0  0  1  0  0  0  0  0  0  0  0  0
   37.0825   36.4751  -12.9368 O   0  0  0  0  0  0  0  0  0  0  0  0
   38.4611   43.4265  -10.9817 C   0  0  0  0  0  0  0  0  0  0  0  0
   38.2979   42.3291  -10.0180 N   0  0  0  0  0  0  0  0  0  0  0  0
  1  2  1  1  0  0  0
  1  7  1  0  0  0  0
  1 30  1  0  0  0  0
  3  4  1  6  0  0  0
  3  9  1  0  0  0  0
  3 39  1  0  0  0  0
  5 10  1  0  0  0  0
  5 26  1  0  0  0  0
  5 32  1  6  0  0  0
  6 12  1  0  0  0  0
  6 36  1  0  0  0  0
  6 19  1  1  0  0  0
  7  8  1  1  0  0  0
  7 14  1  0  0  0  0
  9 16  1  0  0  0  0
 10 11  1  6  0  0  0
 10 18  1  0  0  0  0
 12 13  1  1  0  0  0
 12 20  1  0  0  0  0
 14 15  1  6  0  0  0
 14 22  1  0  0  0  0
 16 17  1  6  0  0  0
 16 24  1  0  0  0  0
 18 19  1  1  0  0  0
 18 25  1  0  0  0  0
 20 21  1  6  0  0  0
 20 27  1  0  0  0  0
 22 23  1  1  0  0  0
 22 29  1  0  0  0  0
 24  2  1  1  0  0  0
 24 31  1  0  0  0  0
 25 26  1  0  0  0  0
 25 33  1  6  0  0  0
 27 28  1  1  0  0  0
 27 35  1  0  0  0  0
 29 30  1  0  0  0  0
 29 37  1  6  0  0  0
 31 32  1  6  0  0  0
 31 39  1  0  0  0  0
 33 34  1  0  0  0  0
 35 36  1  0  0  0  0
 35 41  1  1  0  0  0
 37 38  1  0  0  0  0
 39 40  1  1  0  0  0
 41 42  1  0  0  0  0
M  END
>  <CHROM.1>
-158.05478867,-162.81789108,-171.24570545,166.54132618,-98.39126311,147.40665081
61.66977348,170.47945922,-65.99061847,35.41902875,38.39300472,-14.31998724
2.62515301,0.43230423,2.98686992

>  <Name>
3c44_lig

>  <RI>
0

>  <Rbt.Current_Directory>
/home/itssahil/PROJECTS/Mol_Feturizer/New_Systems/rnas/3c44

>  <Rbt.Executable>
rbdock ($Id: //depot/dev/client3/rdock/2013.1/src/exe/rbdock.cxx#4 $)

>  <Rbt.Library>
libRbt.so (2013.1, Build901 2013/11/27)

>  <Rbt.Parameter_File>
/export/apps/rDock/src/rDock_2013.1_src/data/scripts/dock_solv.prm

>  <Rbt.Receptor>
prm/pocket_docking_5.prm

>  <SCORE>
-8.55574

>  <SCORE.INTER>
-12.077

>  <SCORE.INTER.CONST>
1

>  <SCORE.INTER.POLAR>
-2.08778

>  <SCORE.INTER.ROT>
9

>  <SCORE.INTER.SOLV>
16.8612

>  <SCORE.INTER.VDW>
-16.3125

>  <SCORE.INTER.norm>
-0.287548

>  <SCORE.INTRA>
3.52127

>  <SCORE.INTRA.DIHEDRAL>
-1.12174

>  <SCORE.INTRA.DIHEDRAL.0>
14.8538

>  <SCORE.INTRA.POLAR>
0

>  <SCORE.INTRA.POLAR.0>
0

>  <SCORE.INTRA.REPUL>
0

>  <SCORE.INTRA.REPUL.0>
0

>  <SCORE.INTRA.SOLV>
0.49311

>  <SCORE.INTRA.SOLV.lig_0>
-100.951

>  <SCORE.INTRA.VDW>
3.83558

>  <SCORE.INTRA.VDW.0>
-5.71388

>  <SCORE.INTRA.norm>
0.0838397

>  <SCORE.RESTR>
0

>  <SCORE.RESTR.CAVITY>
0

>  <SCORE.RESTR.norm>
0

>  <SCORE.SYSTEM>
0

>  <SCORE.SYSTEM.CONST>
0

>  <SCORE.SYSTEM.DIHEDRAL>
0

>  <SCORE.SYSTEM.SOLV>
0

>  <SCORE.SYSTEM.norm>
0

>  <SCORE.heavy>
42

>  <SCORE.norm>
-0.203708

>  <RMSD>
5.823

$$$$
3c44_lig
 OpenBabel11021811463D
libRbt.so/2013.1/901 2013/11/27
 42 45  0  0  0  0  0  0  0  0999 V2000
   38.9960   35.9931  -17.5385 C   0  0  2  0  0  0  0  0  0  0  0  0
   39.3028   35.0288  -16.5199 O   0  0  0  0  0  0  0  0  0  0  0  0
   37.1860   33.6681  -13.2248 C   0  0  2  0  0  0  0  0  0  0  0  0
   36.4383   33.3893  -11.9891 N   0  0  0  0  0  0  0  0  0  0  0  0
   36.2416   36.9656  -15.7724 C   0  0  1  0  0  0  0  0  0  0  0  0
   35.8202   40.7068  -14.3846 C   0  0  1  0  0  0  0  0  0  0  0  0
   39.7413   35.6184  -18.8238 C   0  0  2  0  0  0  0  0  0  0  0  0
   39.4374   34.2362  -19.2217 N   0  0  0  0  0  0  0  0  0  0  0  0
   38.5183   34.3529  -12.9066 C   0  0  0  0  0  0  0  0  0  0  0  0
   35.4915   37.8608  -16.7598 C   0  0  2  0  0  0  0  0  0  0  0  0
   36.4027   38.3997  -17.7196 O   0  0  0  0  0  0  0  0  0  0  0  0
   36.2944   42.1209  -14.7355 C   0  0  2  0  0  0  0  0  0  0  0  0
   37.7319   42.0646  -15.0347 N   0  0  0  0  0  0  0  0  0  0  0  0
   41.2551   35.7678  -18.6532 C   0  0  1  0  0  0  0  0  0  0  0  0
   41.8943   35.5623  -19.9167 O   0  0  0  0  0  0  0  0  0  0  0  0
   39.3069   34.4702  -14.2152 C   0  0  2  0  0  0  0  0  0  0  0  0
   40.5696   35.1798  -13.9602 N   0  0  0  0  0  0  0  0  0  0  0  0
   35.0554   38.9778  -15.8137 C   0  0  2  0  0  0  0  0  0  0  0  0
   36.1737   39.8017  -15.4453 O   0  0  0  0  0  0  0  0  0  0  0  0
   36.0691   43.0869  -13.5650 C   0  0  1  0  0  0  0  0  0  0  0  0
   34.6734   43.3464  -13.3935 O   0  0  0  0  0  0  0  0  0  0  0  0
   41.5834   37.1698  -18.1364 C   0  0  2  0  0  0  0  0  0  0  0  0
   42.9856   37.2690  -17.8740 O   0  0  0  0  0  0  0  0  0  0  0  0
   38.5367   35.2101  -15.3161 C   0  0  2  0  0  0  0  0  0  0  0  0
   34.6062   38.1628  -14.6112 C   0  0  2  0  0  0  0  0  0  0  0  0
   35.3952   36.9534  -14.6079 O   0  0  0  0  0  0  0  0  0  0  0  0
   36.6257   42.5108  -12.2620 C   0  0  2  0  0  0  0  0  0  0  0  0
   38.0523   42.4579  -12.3522 O   0  0  0  0  0  0  0  0  0  0  0  0
   40.7987   37.4384  -16.8513 C   0  0  2  0  0  0  0  0  0  0  0  0
   39.3844   37.3069  -17.0957 O   0  0  0  0  0  0  0  0  0  0  0  0
   37.1034   34.7219  -15.5154 C   0  0  2  0  0  0  0  0  0  0  0  0
   36.3940   35.6555  -16.3461 O   0  0  0  0  0  0  0  0  0  0  0  0
   33.1146   37.8459  -14.7385 C   0  0  0  0  0  0  0  0  0  0  0  0
   32.7290   36.9755  -13.6724 O   0  0  0  0  0  0  0  0  0  0  0  0
   36.0507   41.1074  -12.0525 C   0  0  1  0  0  0  0  0  0  0  0  0
   36.4467   40.2834  -13.1632 O   0  0  0  0  0  0  0  0  0  0  0  0
   41.1214   38.8651  -16.4000 C   0  0  0  0  0  0  0  0  0  0  0  0
   40.6517   39.8304  -17.4043 O   0  0  0  0  0  0  0  0  0  0  0  0
   36.3848   34.5672  -14.1698 C   0  0  1  0  0  0  0  0  0  0  0  0
   35.0777   34.0255  -14.3729 O   0  0  0  0  0  0  0  0  0  0  0  0
   36.5440   40.4675  -10.7542 C   0  0  0  0  0  0  0  0  0  0  0  0
   36.1445   39.0535  -10.7296 N   0  0  0  0  0  0  0  0  0  0  0  0
  1  2  1  1  0  0  0
  1  7  1  0  0  0  0
  1 30  1  0  0  0  0
  3  4  1  1  0  0  0
  3  9  1  0  0  0  0
  3 39  1  0  0  0  0
  5 10  1  0  0  0  0
  5 26  1  0  0  0  0
  5 32  1  6  0  0  0
  6 12  1  0  0  0  0
  6 36  1  0  0  0  0
  6 19  1  6  0  0  0
  7  8  1  1  0  0  0
  7 14  1  0  0  0  0
  9 16  1  0  0  0  0
 10 11  1  6  0  0  0
 10 18  1  0  0  0  0
 12 13  1  1  0  0  0
 12 20  1  0  0  0  0
 14 15  1  6  0  0  0
 14 22  1  0  0  0  0
 16 17  1  1  0  0  0
 16 24  1  0  0  0  0
 18 19  1  1  0  0  0
 18 25  1  0  0  0  0
 20 21  1  1  0  0  0
 20 27  1  0  0  0  0
 22 23  1  1  0  0  0
 22 29  1  0  0  0  0
 24  2  1  6  0  0  0
 24 31  1  0  0  0  0
 25 26  1  0  0  0  0
 25 33  1  6  0  0  0
 27 28  1  6  0  0  0
 27 35  1  0  0  0  0
 29 30  1  0  0  0  0
 29 37  1  6  0  0  0
 31 32  1  6  0  0  0
 31 39  1  0  0  0  0
 33 34  1  0  0  0  0
 35 36  1  0  0  0  0
 35 41  1  1  0  0  0
 37 38  1  0  0  0  0
 39 40  1  6  0  0  0
 41 42  1  0  0  0  0
M  END
>  <CHROM.1>
-173.60739119,179.22529793,-132.22047072,-170.10905965,-160.43346764,174.58238515
63.53594802,-63.69716222,-170.40753646,37.57886090,37.74252629,-15.20855313
-0.78433408,0.67591844,0.11159067

>  <Name>
3c44_lig

>  <RI>
0

>  <Rbt.Current_Directory>
/home/itssahil/PROJECTS/Mol_Feturizer/New_Systems/rnas/3c44

>  <Rbt.Executable>
rbdock ($Id: //depot/dev/client3/rdock/2013.1/src/exe/rbdock.cxx#4 $)

>  <Rbt.Library>
libRbt.so (2013.1, Build901 2013/11/27)

>  <Rbt.Parameter_File>
/export/apps/rDock/src/rDock_2013.1_src/data/scripts/dock_solv.prm

>  <Rbt.Receptor>
prm/pocket_docking_6.prm

>  <SCORE>
-9.65707

>  <SCORE.INTER>
-8.89392

>  <SCORE.INTER.CONST>
1

>  <SCORE.INTER.POLAR>
-1.79982

>  <SCORE.INTER.ROT>
9

>  <SCORE.INTER.SOLV>
14.356

>  <SCORE.INTER.VDW>
-14.3152

>  <SCORE.INTER.norm>
-0.21176

>  <SCORE.INTRA>
-1.28168

>  <SCORE.INTRA.DIHEDRAL>
-4.97495

>  <SCORE.INTRA.DIHEDRAL.0>
14.8538

>  <SCORE.INTRA.POLAR>
0

>  <SCORE.INTRA.POLAR.0>
0

>  <SCORE.INTRA.REPUL>
0.0129933

>  <SCORE.INTRA.REPUL.0>
0

>  <SCORE.INTRA.SOLV>
-3.63826

>  <SCORE.INTRA.SOLV.lig_0>
-100.951

>  <SCORE.INTRA.VDW>
2.95996

>  <SCORE.INTRA.VDW.0>
-5.71388

>  <SCORE.INTRA.norm>
-0.0305162

>  <SCORE.RESTR>
0.518531

>  <SCORE.RESTR.CAVITY>
0.518531

>  <SCORE.RESTR.norm>
0.012346

>  <SCORE.SYSTEM>
0

>  <SCORE.SYSTEM.CONST>
0

>  <SCORE.SYSTEM.DIHEDRAL>
0

>  <SCORE.SYSTEM.SOLV>
0

>  <SCORE.SYSTEM.norm>
0

>  <SCORE.heavy>
42

>  <SCORE.norm>
-0.22993

>  <RMSD>
5.869

$$$$
3c44_lig
 OpenBabel11021811463D
libRbt.so/2013.1/901 2013/11/27
 42 45  0  0  0  0  0  0  0  0999 V2000
   34.3619   35.1078  -17.3952 C   0  0  2  0  0  0  0  0  0  0  0  0
   34.6050   34.6319  -16.0624 O   0  0  0  0  0  0  0  0  0  0  0  0
   35.4680   36.6559  -12.5484 C   0  0  2  0  0  0  0  0  0  0  0  0
   35.9549   37.4354  -11.3999 N   0  0  0  0  0  0  0  0  0  0  0  0
   35.5514   38.1493  -16.5608 C   0  0  1  0  0  0  0  0  0  0  0  0
   38.7916   39.6762  -18.7121 C   0  0  1  0  0  0  0  0  0  0  0  0
   33.2317   34.2849  -18.0225 C   0  0  2  0  0  0  0  0  0  0  0  0
   32.0338   34.3052  -17.1707 N   0  0  0  0  0  0  0  0  0  0  0  0
   36.5065   35.6133  -12.9722 C   0  0  0  0  0  0  0  0  0  0  0  0
   35.2683   38.7744  -17.9277 C   0  0  2  0  0  0  0  0  0  0  0  0
   35.2968   37.7669  -18.9406 O   0  0  0  0  0  0  0  0  0  0  0  0
   39.9811   38.7882  -19.0921 C   0  0  2  0  0  0  0  0  0  0  0  0
   40.2474   37.8708  -17.9755 N   0  0  0  0  0  0  0  0  0  0  0  0
   33.6597   32.8327  -18.2483 C   0  0  1  0  0  0  0  0  0  0  0  0
   32.6359   32.1475  -18.9762 O   0  0  0  0  0  0  0  0  0  0  0  0
   35.8743   34.7414  -14.0623 C   0  0  2  0  0  0  0  0  0  0  0  0
   36.8649   33.7646  -14.5393 N   0  0  0  0  0  0  0  0  0  0  0  0
   36.5102   39.6519  -18.0711 C   0  0  2  0  0  0  0  0  0  0  0  0
   37.6738   38.8519  -18.3377 O   0  0  0  0  0  0  0  0  0  0  0  0
   41.2380   39.6283  -19.3540 C   0  0  1  0  0  0  0  0  0  0  0  0
   41.1008   40.3655  -20.5716 O   0  0  0  0  0  0  0  0  0  0  0  0
   34.9656   32.7942  -19.0442 C   0  0  2  0  0  0  0  0  0  0  0  0
   35.4191   31.4428  -19.1579 O   0  0  0  0  0  0  0  0  0  0  0  0
   35.3634   35.5531  -15.2592 C   0  0  2  0  0  0  0  0  0  0  0  0
   36.6026   40.2326  -16.6688 C   0  0  2  0  0  0  0  0  0  0  0  0
   36.0367   39.2519  -15.7725 O   0  0  0  0  0  0  0  0  0  0  0  0
   41.4900   40.6116  -18.2098 C   0  0  2  0  0  0  0  0  0  0  0  0
   41.8468   39.8744  -17.0370 O   0  0  0  0  0  0  0  0  0  0  0  0
   36.0252   33.6347  -18.3301 C   0  0  2  0  0  0  0  0  0  0  0  0
   35.5643   34.9918  -18.1786 O   0  0  0  0  0  0  0  0  0  0  0  0
   34.5089   36.7607  -14.8794 C   0  0  2  0  0  0  0  0  0  0  0  0
   34.3319   37.5998  -16.0323 O   0  0  0  0  0  0  0  0  0  0  0  0
   35.8221   41.5474  -16.6088 C   0  0  0  0  0  0  0  0  0  0  0  0
   36.0798   42.1872  -15.3570 O   0  0  0  0  0  0  0  0  0  0  0  0
   40.2169   41.4254  -17.9632 C   0  0  1  0  0  0  0  0  0  0  0  0
   39.1590   40.5179  -17.6075 O   0  0  0  0  0  0  0  0  0  0  0  0
   37.2947   33.6055  -19.1852 C   0  0  0  0  0  0  0  0  0  0  0  0
   37.0459   34.2557  -20.4799 O   0  0  0  0  0  0  0  0  0  0  0  0
   35.1623   37.5597  -13.7455 C   0  0  1  0  0  0  0  0  0  0  0  0
   34.3053   38.6315  -13.3458 O   0  0  0  0  0  0  0  0  0  0  0  0
   40.3935   42.4513  -16.8430 C   0  0  0  0  0  0  0  0  0  0  0  0
   41.2288   43.5587  -17.3283 N   0  0  0  0  0  0  0  0  0  0  0  0
  1  2  1  1  0  0  0
  1  7  1  0  0  0  0
  1 30  1  0  0  0  0
  3  4  1  1  0  0  0
  3  9  1  0  0  0  0
  3 39  1  0  0  0  0
  5 10  1  0  0  0  0
  5 26  1  0  0  0  0
  5 32  1  1  0  0  0
  6 12  1  0  0  0  0
  6 36  1  0  0  0  0
  6 19  1  1  0  0  0
  7  8  1  1  0  0  0
  7 14  1  0  0  0  0
  9 16  1  0  0  0  0
 10 11  1  6  0  0  0
 10 18  1  0  0  0  0
 12 13  1  1  0  0  0
 12 20  1  0  0  0  0
 14 15  1  6  0  0  0
 14 22  1  0  0  0  0
 16 17  1  6  0  0  0
 16 24  1  0  0  0  0
 18 19  1  1  0  0  0
 18 25  1  0  0  0  0
 20 21  1  6  0  0  0
 20 27  1  0  0  0  0
 22 23  1  1  0  0  0
 22 29  1  0  0  0  0
 24  2  1  6  0  0  0
 24 31  1  0  0  0  0
 25 26  1  0  0  0  0
 25 33  1  6  0  0  0
 27 28  1  1  0  0  0
 27 35  1  0  0  0  0
 29 30  1  0  0  0  0
 29 37  1  6  0  0  0
 31 32  1  6  0  0  0
 31 39  1  0  0  0  0
 33 34  1  0  0  0  0
 35 36  1  0  0  0  0
 35 41  1  1  0  0  0
 37 38  1  0  0  0  0
 39 40  1  1  0  0  0
 41 42  1  0  0  0  0
M  END
>  <CHROM.1>
-163.46999291,168.53287534,-175.70327191,169.54682372,-163.72708500,-171.25555924
64.20569531,-62.20797544,73.38393124,36.70358271,37.37296258,-17.02372183
-2.59488900,0.78543561,0.77752281

>  <Name>
3c44_lig

>  <RI>
0

>  <Rbt.Current_Directory>
/home/itssahil/PROJECTS/Mol_Feturizer/New_Systems/rnas/3c44

>  <Rbt.Executable>
rbdock ($Id: //depot/dev/client3/rdock/2013.1/src/exe/rbdock.cxx#4 $)

>  <Rbt.Library>
libRbt.so (2013.1, Build901 2013/11/27)

>  <Rbt.Parameter_File>
/export/apps/rDock/src/rDock_2013.1_src/data/scripts/dock_solv.prm

>  <Rbt.Receptor>
prm/pocket_docking_7.prm

>  <SCORE>
-14.8494

>  <SCORE.INTER>
-10.2884

>  <SCORE.INTER.CONST>
1

>  <SCORE.INTER.POLAR>
-1.7714

>  <SCORE.INTER.ROT>
9

>  <SCORE.INTER.SOLV>
13.301

>  <SCORE.INTER.VDW>
-14.9879

>  <SCORE.INTER.norm>
-0.244963

>  <SCORE.INTRA>
-4.56096

>  <SCORE.INTRA.DIHEDRAL>
-9.71408

>  <SCORE.INTRA.DIHEDRAL.0>
14.8538

>  <SCORE.INTRA.POLAR>
0

>  <SCORE.INTRA.POLAR.0>
0

>  <SCORE.INTRA.REPUL>
0

>  <SCORE.INTRA.REPUL.0>
0

>  <SCORE.INTRA.SOLV>
-3.92184

>  <SCORE.INTRA.SOLV.lig_0>
-100.951

>  <SCORE.INTRA.VDW>
2.257

>  <SCORE.INTRA.VDW.0>
-5.71388

>  <SCORE.INTRA.norm>
-0.108594

>  <SCORE.RESTR>
0

>  <SCORE.RESTR.CAVITY>
0

>  <SCORE.RESTR.norm>
0

>  <SCORE.SYSTEM>
0

>  <SCORE.SYSTEM.CONST>
0

>  <SCORE.SYSTEM.DIHEDRAL>
0

>  <SCORE.SYSTEM.SOLV>
0

>  <SCORE.SYSTEM.norm>
0

>  <SCORE.heavy>
42

>  <SCORE.norm>
-0.353557

>  <RMSD>
5.883

$$$$
3c44_lig
 OpenBabel11021811463D
libRbt.so/2013.1/901 2013/11/27
 42 45  0  0  0  0  0  0  0  0999 V2000
   32.6882   36.3682  -15.9726 C   0  0  2  0  0  0  0  0  0  0  0  0
   32.9504   36.8757  -14.6552 O   0  0  0  0  0  0  0  0  0  0  0  0
   36.2780   36.5663  -12.2014 C   0  0  2  0  0  0  0  0  0  0  0  0
   37.5732   36.4977  -11.5075 N   0  0  0  0  0  0  0  0  0  0  0  0
   35.5408   39.9275  -14.5251 C   0  0  1  0  0  0  0  0  0  0  0  0
   38.5143   41.6675  -16.8599 C   0  0  1  0  0  0  0  0  0  0  0  0
   31.9207   37.4256  -16.7731 C   0  0  2  0  0  0  0  0  0  0  0  0
   32.6428   38.7061  -16.7768 N   0  0  0  0  0  0  0  0  0  0  0  0
   36.2466   35.5930  -13.3833 C   0  0  0  0  0  0  0  0  0  0  0  0
   35.0961   40.9605  -15.5616 C   0  0  2  0  0  0  0  0  0  0  0  0
   34.7454   40.3069  -16.7829 O   0  0  0  0  0  0  0  0  0  0  0  0
   39.3529   40.8852  -17.8760 C   0  0  2  0  0  0  0  0  0  0  0  0
   39.6355   39.5566  -17.3156 N   0  0  0  0  0  0  0  0  0  0  0  0
   30.5171   37.6450  -16.2032 C   0  0  1  0  0  0  0  0  0  0  0  0
   29.7870   38.5170  -17.0715 O   0  0  0  0  0  0  0  0  0  0  0  0
   34.8265   35.6033  -13.9586 C   0  0  2  0  0  0  0  0  0  0  0  0
   34.7725   34.7245  -15.1367 N   0  0  0  0  0  0  0  0  0  0  0  0
   36.4138   41.7060  -15.7631 C   0  0  2  0  0  0  0  0  0  0  0  0
   37.3448   40.9064  -16.5108 O   0  0  0  0  0  0  0  0  0  0  0  0
   40.6824   41.5960  -18.1612 C   0  0  1  0  0  0  0  0  0  0  0  0
   40.4583   42.7898  -18.9158 O   0  0  0  0  0  0  0  0  0  0  0  0
   29.7868   36.3054  -16.0919 C   0  0  2  0  0  0  0  0  0  0  0  0
   28.5198   36.5002  -15.4580 O   0  0  0  0  0  0  0  0  0  0  0  0
   34.3531   37.0047  -14.3643 C   0  0  2  0  0  0  0  0  0  0  0  0
   36.8877   41.8253  -14.3232 C   0  0  2  0  0  0  0  0  0  0  0  0
   36.3573   40.6852  -13.6131 O   0  0  0  0  0  0  0  0  0  0  0  0
   41.3990   41.9637  -16.8608 C   0  0  2  0  0  0  0  0  0  0  0  0
   41.8214   40.7619  -16.2102 O   0  0  0  0  0  0  0  0  0  0  0  0
   30.6296   35.3296  -15.2694 C   0  0  2  0  0  0  0  0  0  0  0  0
   31.9228   35.1522  -15.8805 O   0  0  0  0  0  0  0  0  0  0  0  0
   34.5826   38.0767  -13.3009 C   0  0  2  0  0  0  0  0  0  0  0  0
   34.3789   39.3748  -13.8822 O   0  0  0  0  0  0  0  0  0  0  0  0
   36.3718   43.1351  -13.7235 C   0  0  0  0  0  0  0  0  0  0  0  0
   34.9959   42.9775  -13.3702 O   0  0  0  0  0  0  0  0  0  0  0  0
   40.4348   42.7462  -15.9652 C   0  0  1  0  0  0  0  0  0  0  0  0
   39.2987   41.9108  -15.6813 O   0  0  0  0  0  0  0  0  0  0  0  0
   29.8834   33.9936  -15.2265 C   0  0  0  0  0  0  0  0  0  0  0  0
   29.7560   33.4431  -16.5835 O   0  0  0  0  0  0  0  0  0  0  0  0
   35.9985   37.9790  -12.7206 C   0  0  1  0  0  0  0  0  0  0  0  0
   36.1620   38.9310  -11.6671 O   0  0  0  0  0  0  0  0  0  0  0  0
   41.0845   43.1715  -14.6478 C   0  0  0  0  0  0  0  0  0  0  0  0
   40.1117   43.9337  -13.8526 N   0  0  0  0  0  0  0  0  0  0  0  0
  1  2  1  1  0  0  0
  1  7  1  0  0  0  0
  1 30  1  0  0  0  0
  3  4  1  6  0  0  0
  3  9  1  0  0  0  0
  3 39  1  0  0  0  0
  5 10  1  0  0  0  0
  5 26  1  0  0  0  0
  5 32  1  1  0  0  0
  6 12  1  0  0  0  0
  6 36  1  0  0  0  0
  6 19  1  1  0  0  0
  7  8  1  1  0  0  0
  7 14  1  0  0  0  0
  9 16  1  0  0  0  0
 10 11  1  6  0  0  0
 10 18  1  0  0  0  0
 12 13  1  1  0  0  0
 12 20  1  0  0  0  0
 14 15  1  6  0  0  0
 14 22  1  0  0  0  0
 16 17  1  6  0  0  0
 16 24  1  0  0  0  0
 18 19  1  6  0  0  0
 18 25  1  0  0  0  0
 20 21  1  1  0  0  0
 20 27  1  0  0  0  0
 22 23  1  1  0  0  0
 22 29  1  0  0  0  0
 24  2  1  1  0  0  0
 24 31  1  0  0  0  0
 25 26  1  0  0  0  0
 25 33  1  1  0  0  0
 27 28  1  1  0  0  0
 27 35  1  0  0  0  0
 29 30  1  0  0  0  0
 29 37  1  6  0  0  0
 31 32  1  6  0  0  0
 31 39  1  0  0  0  0
 33 34  1  0  0  0  0
 35 36  1  0  0  0  0
 35 41  1  1  0  0  0
 37 38  1  0  0  0  0
 39 40  1  1  0  0  0
 41 42  1  0  0  0  0
M  END
>  <CHROM.1>
-117.66023162,156.70406270,-169.04882497,172.13109330,-81.43494665,78.11304527
62.78256281,-86.18954205,179.06422188,35.50977634,39.05697964,-15.25663478
2.68505120,0.44285165,2.34776284

>  <Name>
3c44_lig

>  <RI>
0

>  <Rbt.Current_Directory>
/home/itssahil/PROJECTS/Mol_Feturizer/New_Systems/rnas/3c44

>  <Rbt.Executable>
rbdock ($Id: //depot/dev/client3/rdock/2013.1/src/exe/rbdock.cxx#4 $)

>  <Rbt.Library>
libRbt.so (2013.1, Build901 2013/11/27)

>  <Rbt.Parameter_File>
/export/apps/rDock/src/rDock_2013.1_src/data/scripts/dock_solv.prm

>  <Rbt.Receptor>
prm/pocket_docking_5.prm

>  <SCORE>
-10.4392

>  <SCORE.INTER>
-15.9732

>  <SCORE.INTER.CONST>
1

>  <SCORE.INTER.POLAR>
-1.52503

>  <SCORE.INTER.ROT>
9

>  <SCORE.INTER.SOLV>
15.3606

>  <SCORE.INTER.VDW>
-20.2856

>  <SCORE.INTER.norm>
-0.380314

>  <SCORE.INTRA>
5.53396

>  <SCORE.INTRA.DIHEDRAL>
1.96425

>  <SCORE.INTRA.DIHEDRAL.0>
14.8538

>  <SCORE.INTRA.POLAR>
0

>  <SCORE.INTRA.POLAR.0>
0

>  <SCORE.INTRA.REPUL>
0

>  <SCORE.INTRA.REPUL.0>
0

>  <SCORE.INTRA.SOLV>
1.30357

>  <SCORE.INTRA.SOLV.lig_0>
-100.951

>  <SCORE.INTRA.VDW>
3.90006

>  <SCORE.INTRA.VDW.0>
-5.71388

>  <SCORE.INTRA.norm>
0.131761

>  <SCORE.RESTR>
0

>  <SCORE.RESTR.CAVITY>
0

>  <SCORE.RESTR.norm>
0

>  <SCORE.SYSTEM>
0

>  <SCORE.SYSTEM.CONST>
0

>  <SCORE.SYSTEM.DIHEDRAL>
0

>  <SCORE.SYSTEM.SOLV>
0

>  <SCORE.SYSTEM.norm>
0

>  <SCORE.heavy>
42

>  <SCORE.norm>
-0.248553

>  <RMSD>
5.893

$$$$
3c44_lig
 OpenBabel11021811463D
libRbt.so/2013.1/901 2013/11/27
 42 45  0  0  0  0  0  0  0  0999 V2000
   37.3339   39.4200  -10.2492 C   0  0  2  0  0  0  0  0  0  0  0  0
   36.2054   38.9139  -10.9788 O   0  0  0  0  0  0  0  0  0  0  0  0
   36.0256   36.1657  -14.0779 C   0  0  2  0  0  0  0  0  0  0  0  0
   36.0651   35.3387  -15.2937 N   0  0  0  0  0  0  0  0  0  0  0  0
   39.3702   38.4494  -12.5318 C   0  0  1  0  0  0  0  0  0  0  0  0
   41.6810   41.5454  -14.1865 C   0  0  1  0  0  0  0  0  0  0  0  0
   37.4318   38.6877   -8.9068 C   0  0  2  0  0  0  0  0  0  0  0  0
   37.4742   37.2318   -9.1061 N   0  0  0  0  0  0  0  0  0  0  0  0
   35.3654   37.5172  -14.3657 C   0  0  0  0  0  0  0  0  0  0  0  0
   40.6709   38.8550  -11.8370 C   0  0  2  0  0  0  0  0  0  0  0  0
   40.4061   39.8525  -10.8488 O   0  0  0  0  0  0  0  0  0  0  0  0
   41.2567   43.0176  -14.1650 C   0  0  2  0  0  0  0  0  0  0  0  0
   39.8323   43.0925  -14.5181 N   0  0  0  0  0  0  0  0  0  0  0  0
   36.2506   39.0332   -7.9967 C   0  0  1  0  0  0  0  0  0  0  0  0
   36.4660   38.4557   -6.7054 O   0  0  0  0  0  0  0  0  0  0  0  0
   35.2176   38.2576  -13.0323 C   0  0  2  0  0  0  0  0  0  0  0  0
   34.6418   39.5887  -13.2763 N   0  0  0  0  0  0  0  0  0  0  0  0
   41.3974   39.5067  -13.0119 C   0  0  2  0  0  0  0  0  0  0  0  0
   40.8135   40.7803  -13.3314 O   0  0  0  0  0  0  0  0  0  0  0  0
   42.0626   43.8410  -15.1783 C   0  0  1  0  0  0  0  0  0  0  0  0
   43.4167   43.9837  -14.7413 O   0  0  0  0  0  0  0  0  0  0  0  0
   36.1253   40.5520   -7.8629 C   0  0  2  0  0  0  0  0  0  0  0  0
   34.9570   40.8726   -7.1031 O   0  0  0  0  0  0  0  0  0  0  0  0
   36.5477   38.4228  -12.2866 C   0  0  2  0  0  0  0  0  0  0  0  0
   41.0839   38.5116  -14.1180 C   0  0  2  0  0  0  0  0  0  0  0  0
   39.8072   37.9182  -13.7965 O   0  0  0  0  0  0  0  0  0  0  0  0
   42.0581   43.1750  -16.5553 C   0  0  2  0  0  0  0  0  0  0  0  0
   40.7332   43.2312  -17.0915 O   0  0  0  0  0  0  0  0  0  0  0  0
   36.0244   41.1818   -9.2531 C   0  0  2  0  0  0  0  0  0  0  0  0
   37.1811   40.8364  -10.0405 O   0  0  0  0  0  0  0  0  0  0  0  0
   37.3695   37.1400  -12.1782 C   0  0  2  0  0  0  0  0  0  0  0  0
   38.6969   37.4617  -11.7319 O   0  0  0  0  0  0  0  0  0  0  0  0
   42.1845   37.4501  -14.1759 C   0  0  0  0  0  0  0  0  0  0  0  0
   42.1572   36.6821  -12.9708 O   0  0  0  0  0  0  0  0  0  0  0  0
   42.5136   41.7210  -16.4065 C   0  0  1  0  0  0  0  0  0  0  0  0
   41.5953   41.0443  -15.5300 O   0  0  0  0  0  0  0  0  0  0  0  0
   35.9497   42.6998   -9.0707 C   0  0  0  0  0  0  0  0  0  0  0  0
   37.2142   43.2041   -8.5161 O   0  0  0  0  0  0  0  0  0  0  0  0
   37.4322   36.4134  -13.5269 C   0  0  1  0  0  0  0  0  0  0  0  0
   38.1287   35.1737  -13.3826 O   0  0  0  0  0  0  0  0  0  0  0  0
   42.5571   40.9878  -17.7477 C   0  0  0  0  0  0  0  0  0  0  0  0
   43.0020   39.6045  -17.5287 N   0  0  0  0  0  0  0  0  0  0  0  0
  1  2  1  1  0  0  0
  1  7  1  0  0  0  0
  1 30  1  0  0  0  0
  3  4  1  6  0  0  0
  3  9  1  0  0  0  0
  3 39  1  0  0  0  0
  5 10  1  0  0  0  0
  5 26  1  0  0  0  0
  5 32  1  1  0  0  0
  6 12  1  0  0  0  0
  6 36  1  0  0  0  0
  6 19  1  1  0  0  0
  7  8  1  6  0  0  0
  7 14  1  0  0  0  0
  9 16  1  0  0  0  0
 10 11  1  1  0  0  0
 10 18  1  0  0  0  0
 12 13  1  6  0  0  0
 12 20  1  0  0  0  0
 14 15  1  1  0  0  0
 14 22  1  0  0  0  0
 16 17  1  6  0  0  0
 16 24  1  0  0  0  0
 18 19  1  6  0  0  0
 18 25  1  0  0  0  0
 20 21  1  1  0  0  0
 20 27  1  0  0  0  0
 22 23  1  1  0  0  0
 22 29  1  0  0  0  0
 24  2  1  1  0  0  0
 24 31  1  0  0  0  0
 25 26  1  0  0  0  0
 25 33  1  1  0  0  0
 27 28  1  1  0  0  0
 27 35  1  0  0  0  0
 29 30  1  0  0  0  0
 29 37  1  1  0  0  0
 31 32  1  6  0  0  0
 31 39  1  0  0  0  0
 33 34  1  0  0  0  0
 35 36  1  0  0  0  0
 35 41  1  6  0  0  0
 37 38  1  0  0  0  0
 39 40  1  1  0  0  0
 41 42  1  0  0  0  0
M  END
>  <CHROM.1>
-124.28188257,171.43558485,-162.91878396,165.20326565,-166.33624044,65.69500148
66.10789039,-54.30604804,179.94098968,38.88697463,39.67229952,-12.57170539
-2.97953008,-0.84179378,-2.57600241

>  <Name>
3c44_lig

>  <RI>
224

>  <Rbt.Current_Directory>
/home/itssahil/PROJECTS/Mol_Feturizer/New_Systems/rnas/3c44

>  <Rbt.Executable>
rbdock ($Id: //depot/dev/client3/rdock/2013.1/src/exe/rbdock.cxx#4 $)

>  <Rbt.Library>
libRbt.so (2013.1, Build901 2013/11/27)

>  <Rbt.Parameter_File>
/export/apps/rDock/src/rDock_2013.1_src/data/scripts/dock_solv.prm

>  <Rbt.Receptor>
prm/pocket_docking_8.prm

>  <SCORE>
-21.5736

>  <SCORE.INTER>
-21.1691

>  <SCORE.INTER.CONST>
1

>  <SCORE.INTER.POLAR>
-3.23333

>  <SCORE.INTER.ROT>
9

>  <SCORE.INTER.SOLV>
17.4561

>  <SCORE.INTER.VDW>
-18.7536

>  <SCORE.INTER.norm>
-0.504025

>  <SCORE.INTRA>
-0.40449

>  <SCORE.INTRA.DIHEDRAL>
-3.34184

>  <SCORE.INTRA.DIHEDRAL.0>
14.8538

>  <SCORE.INTRA.POLAR>
0

>  <SCORE.INTRA.POLAR.0>
0

>  <SCORE.INTRA.REPUL>
0

>  <SCORE.INTRA.REPUL.0>
0

>  <SCORE.INTRA.SOLV>
-1.53339

>  <SCORE.INTRA.SOLV.lig_0>
-100.951

>  <SCORE.INTRA.VDW>
2.03312

>  <SCORE.INTRA.VDW.0>
-5.71388

>  <SCORE.INTRA.norm>
-0.00963072

>  <SCORE.RESTR>
0

>  <SCORE.RESTR.CAVITY>
0

>  <SCORE.RESTR.norm>
0

>  <SCORE.SYSTEM>
0

>  <SCORE.SYSTEM.CONST>
0

>  <SCORE.SYSTEM.DIHEDRAL>
0

>  <SCORE.SYSTEM.SOLV>
0

>  <SCORE.SYSTEM.norm>
0

>  <SCORE.heavy>
42

>  <SCORE.norm>
-0.513656

>  <RMSD>
5.939

$$$$
3c44_lig
 OpenBabel11021811463D
libRbt.so/2013.1/901 2013/11/27
 42 45  0  0  0  0  0  0  0  0999 V2000
   33.9485   36.1141  -17.6482 C   0  0  2  0  0  0  0  0  0  0  0  0
   34.9669   36.5329  -16.7267 O   0  0  0  0  0  0  0  0  0  0  0  0
   38.6912   34.9523  -15.8208 C   0  0  2  0  0  0  0  0  0  0  0  0
   40.0352   34.3644  -15.7111 N   0  0  0  0  0  0  0  0  0  0  0  0
   38.1010   39.2688  -16.6799 C   0  0  1  0  0  0  0  0  0  0  0  0
   40.2410   42.6353  -15.4915 C   0  0  1  0  0  0  0  0  0  0  0  0
   33.4615   37.3301  -18.4432 C   0  0  2  0  0  0  0  0  0  0  0  0
   34.5874   38.0158  -19.0938 N   0  0  0  0  0  0  0  0  0  0  0  0
   37.7517   34.0125  -16.5818 C   0  0  0  0  0  0  0  0  0  0  0  0
   38.0490   40.4880  -17.6018 C   0  0  2  0  0  0  0  0  0  0  0  0
   39.0690   40.3910  -18.5977 O   0  0  0  0  0  0  0  0  0  0  0  0
   41.7635   42.7918  -15.5652 C   0  0  2  0  0  0  0  0  0  0  0  0
   42.3781   41.5178  -15.1674 N   0  0  0  0  0  0  0  0  0  0  0  0
   32.7236   38.3244  -17.5433 C   0  0  1  0  0  0  0  0  0  0  0  0
   32.1532   39.3581  -18.3516 O   0  0  0  0  0  0  0  0  0  0  0  0
   36.3429   34.6123  -16.5221 C   0  0  2  0  0  0  0  0  0  0  0  0
   35.4211   33.7672  -17.2962 N   0  0  0  0  0  0  0  0  0  0  0  0
   38.4354   41.5798  -16.6061 C   0  0  2  0  0  0  0  0  0  0  0  0
   39.8331   41.5041  -16.2809 O   0  0  0  0  0  0  0  0  0  0  0  0
   42.2531   43.8954  -14.6184 C   0  0  1  0  0  0  0  0  0  0  0  0
   41.8640   45.1816  -15.1075 O   0  0  0  0  0  0  0  0  0  0  0  0
   31.6133   37.6046  -16.7755 C   0  0  2  0  0  0  0  0  0  0  0  0
   30.9992   38.5115  -15.8560 O   0  0  0  0  0  0  0  0  0  0  0  0
   36.2766   36.0448  -17.0664 C   0  0  2  0  0  0  0  0  0  0  0  0
   37.6092   41.1603  -15.4004 C   0  0  2  0  0  0  0  0  0  0  0  0
   37.4669   39.7250  -15.4706 O   0  0  0  0  0  0  0  0  0  0  0  0
   41.6781   43.7093  -13.2133 C   0  0  2  0  0  0  0  0  0  0  0  0
   42.2434   42.5293  -12.6352 O   0  0  0  0  0  0  0  0  0  0  0  0
   32.2047   36.4187  -16.0119 C   0  0  2  0  0  0  0  0  0  0  0  0
   32.8570   35.5147  -16.9254 O   0  0  0  0  0  0  0  0  0  0  0  0
   37.3542   36.9759  -16.5148 C   0  0  2  0  0  0  0  0  0  0  0  0
   37.3832   38.1836  -17.2928 O   0  0  0  0  0  0  0  0  0  0  0  0
   36.2449   41.8512  -15.4518 C   0  0  0  0  0  0  0  0  0  0  0  0
   35.5522   41.4309  -16.6293 O   0  0  0  0  0  0  0  0  0  0  0  0
   40.1557   43.5801  -13.3115 C   0  0  1  0  0  0  0  0  0  0  0  0
   39.8483   42.4338  -14.1246 O   0  0  0  0  0  0  0  0  0  0  0  0
   31.0531   35.7036  -15.3007 C   0  0  0  0  0  0  0  0  0  0  0  0
   31.5763   34.6162  -14.4611 O   0  0  0  0  0  0  0  0  0  0  0  0
   38.7304   36.3003  -16.5450 C   0  0  1  0  0  0  0  0  0  0  0  0
   39.7070   37.1531  -15.9434 O   0  0  0  0  0  0  0  0  0  0  0  0
   39.4994   43.4114  -11.9407 C   0  0  0  0  0  0  0  0  0  0  0  0
   38.0474   43.2664  -12.1141 N   0  0  0  0  0  0  0  0  0  0  0  0
  1  2  1  1  0  0  0
  1  7  1  0  0  0  0
  1 30  1  0  0  0  0
  3  4  1  6  0  0  0
  3  9  1  0  0  0  0
  3 39  1  0  0  0  0
  5 10  1  0  0  0  0
  5 26  1  0  0  0  0
  5 32  1  6  0  0  0
  6 12  1  0  0  0  0
  6 36  1  0  0  0  0
  6 19  1  6  0  0  0
  7  8  1  1  0  0  0
  7 14  1  0  0  0  0
  9 16  1  0  0  0  0
 10 11  1  6  0  0  0
 10 18  1  0  0  0  0
 12 13  1  1  0  0  0
 12 20  1  0  0  0  0
 14 15  1  6  0  0  0
 14 22  1  0  0  0  0
 16 17  1  6  0  0  0
 16 24  1  0  0  0  0
 18 19  1  1  0  0  0
 18 25  1  0  0  0  0
 20 21  1  6  0  0  0
 20 27  1  0  0  0  0
 22 23  1  1  0  0  0
 22 29  1  0  0  0  0
 24  2  1  1  0  0  0
 24 31  1  0  0  0  0
 25 26  1  0  0  0  0
 25 33  1  6  0  0  0
 27 28  1  6  0  0  0
 27 35  1  0  0  0  0
 29 30  1  0  0  0  0
 29 37  1  6  0  0  0
 31 32  1  6  0  0  0
 31 39  1  0  0  0  0
 33 34  1  0  0  0  0
 35 36  1  0  0  0  0
 35 41  1  1  0  0  0
 37 38  1  0  0  0  0
 39 40  1  1  0  0  0
 41 42  1  0  0  0  0
M  END
>  <CHROM.1>
-110.70790718,-179.68644527,-160.67344271,172.06664844,-82.08163267,62.04316079
-175.46081996,164.81702831,-178.84773889,37.12531011,39.13056842,-15.95902166
-2.37171056,-0.10504422,0.22442500

>  <Name>
3c44_lig

>  <RI>
0

>  <Rbt.Current_Directory>
/home/itssahil/PROJECTS/Mol_Feturizer/New_Systems/rnas/3c44

>  <Rbt.Executable>
rbdock ($Id: //depot/dev/client3/rdock/2013.1/src/exe/rbdock.cxx#4 $)

>  <Rbt.Library>
libRbt.so (2013.1, Build901 2013/11/27)

>  <Rbt.Parameter_File>
/export/apps/rDock/src/rDock_2013.1_src/data/scripts/dock_solv.prm

>  <Rbt.Receptor>
prm/pocket_docking_5.prm

>  <SCORE>
-1.10981

>  <SCORE.INTER>
-1.45894

>  <SCORE.INTER.CONST>
1

>  <SCORE.INTER.POLAR>
-0.254412

>  <SCORE.INTER.ROT>
9

>  <SCORE.INTER.SOLV>
12.594

>  <SCORE.INTER.VDW>
-13.9226

>  <SCORE.INTER.norm>
-0.0347368

>  <SCORE.INTRA>
0.343715

>  <SCORE.INTRA.DIHEDRAL>
-2.31629

>  <SCORE.INTRA.DIHEDRAL.0>
14.8538

>  <SCORE.INTRA.POLAR>
0

>  <SCORE.INTRA.POLAR.0>
0

>  <SCORE.INTRA.REPUL>
0.00392594

>  <SCORE.INTRA.REPUL.0>
0

>  <SCORE.INTRA.SOLV>
-1.47815

>  <SCORE.INTRA.SOLV.lig_0>
-100.951

>  <SCORE.INTRA.VDW>
2.22131

>  <SCORE.INTRA.VDW.0>
-5.71388

>  <SCORE.INTRA.norm>
0.00818369

>  <SCORE.RESTR>
0.00542082

>  <SCORE.RESTR.CAVITY>
0.00542082

>  <SCORE.RESTR.norm>
0.000129067

>  <SCORE.SYSTEM>
0

>  <SCORE.SYSTEM.CONST>
0

>  <SCORE.SYSTEM.DIHEDRAL>
0

>  <SCORE.SYSTEM.SOLV>
0

>  <SCORE.SYSTEM.norm>
0

>  <SCORE.heavy>
42

>  <SCORE.norm>
-0.026424

>  <RMSD>
5.992

$$$$
3c44_lig
 OpenBabel11021811463D
libRbt.so/2013.1/901 2013/11/27
 42 45  0  0  0  0  0  0  0  0999 V2000
   36.4857   37.1994  -16.9083 C   0  0  2  0  0  0  0  0  0  0  0  0
   37.0183   36.3505  -15.8800 O   0  0  0  0  0  0  0  0  0  0  0  0
   36.9804   37.1870  -11.8194 C   0  0  2  0  0  0  0  0  0  0  0  0
   37.1371   37.6084  -10.4188 N   0  0  0  0  0  0  0  0  0  0  0  0
   37.0651   40.0251  -14.9619 C   0  0  1  0  0  0  0  0  0  0  0  0
   39.6230   42.0883  -17.0855 C   0  0  1  0  0  0  0  0  0  0  0  0
   35.6063   36.3624  -17.8432 C   0  0  2  0  0  0  0  0  0  0  0  0
   34.5694   35.6467  -17.0857 N   0  0  0  0  0  0  0  0  0  0  0  0
   38.2794   36.5701  -12.3459 C   0  0  0  0  0  0  0  0  0  0  0  0
   36.8702   40.9776  -16.1425 C   0  0  2  0  0  0  0  0  0  0  0  0
   37.4612   40.4236  -17.3196 O   0  0  0  0  0  0  0  0  0  0  0  0
   41.0215   41.4797  -17.2321 C   0  0  2  0  0  0  0  0  0  0  0  0
   41.8684   42.0039  -16.1518 N   0  0  0  0  0  0  0  0  0  0  0  0
   36.4391   35.3483  -18.6312 C   0  0  1  0  0  0  0  0  0  0  0  0
   35.6051   34.7043  -19.5992 O   0  0  0  0  0  0  0  0  0  0  0  0
   37.9985   36.0160  -13.7467 C   0  0  2  0  0  0  0  0  0  0  0  0
   39.2412   35.4686  -14.3115 N   0  0  0  0  0  0  0  0  0  0  0  0
   37.7242   42.1520  -15.6688 C   0  0  2  0  0  0  0  0  0  0  0  0
   39.1232   41.8367  -15.7604 O   0  0  0  0  0  0  0  0  0  0  0  0
   41.6499   41.8543  -18.5808 C   0  0  1  0  0  0  0  0  0  0  0  0
   40.9867   41.1707  -19.6475 O   0  0  0  0  0  0  0  0  0  0  0  0
   37.5899   36.0626  -19.3424 C   0  0  2  0  0  0  0  0  0  0  0  0
   38.4282   35.0995  -19.9864 O   0  0  0  0  0  0  0  0  0  0  0  0
   37.4402   37.0716  -14.7092 C   0  0  2  0  0  0  0  0  0  0  0  0
   37.3131   42.2215  -14.2065 C   0  0  2  0  0  0  0  0  0  0  0  0
   36.9561   40.8800  -13.8088 O   0  0  0  0  0  0  0  0  0  0  0  0
   41.5584   43.3606  -18.8303 C   0  0  2  0  0  0  0  0  0  0  0  0
   42.4034   44.0362  -17.8945 O   0  0  0  0  0  0  0  0  0  0  0  0
   38.4074   36.8571  -18.3228 C   0  0  2  0  0  0  0  0  0  0  0  0
   37.5647   37.8079  -17.6423 O   0  0  0  0  0  0  0  0  0  0  0  0
   36.2837   37.8906  -14.1397 C   0  0  2  0  0  0  0  0  0  0  0  0
   36.0360   39.0207  -14.9919 O   0  0  0  0  0  0  0  0  0  0  0  0
   36.1253   43.1743  -14.0555 C   0  0  0  0  0  0  0  0  0  0  0  0
   35.5937   43.0528  -12.7343 O   0  0  0  0  0  0  0  0  0  0  0  0
   40.1042   43.8066  -18.6566 C   0  0  1  0  0  0  0  0  0  0  0  0
   39.6938   43.5052  -17.3112 O   0  0  0  0  0  0  0  0  0  0  0  0
   39.5140   37.5904  -19.0852 C   0  0  0  0  0  0  0  0  0  0  0  0
   40.5184   36.6299  -19.5641 O   0  0  0  0  0  0  0  0  0  0  0  0
   36.5978   38.3669  -12.7165 C   0  0  1  0  0  0  0  0  0  0  0  0
   35.4694   39.0537  -12.1705 O   0  0  0  0  0  0  0  0  0  0  0  0
   39.9235   45.3036  -18.9111 C   0  0  0  0  0  0  0  0  0  0  0  0
   40.3385   45.6141  -20.2862 N   0  0  0  0  0  0  0  0  0  0  0  0
  1  2  1  1  0  0  0
  1  7  1  0  0  0  0
  1 30  1  0  0  0  0
  3  4  1  1  0  0  0
  3  9  1  0  0  0  0
  3 39  1  0  0  0  0
  5 10  1  0  0  0  0
  5 26  1  0  0  0  0
  5 32  1  1  0  0  0
  6 12  1  0  0  0  0
  6 36  1  0  0  0  0
  6 19  1  1  0  0  0
  7  8  1  1  0  0  0
  7 14  1  0  0  0  0
  9 16  1  0  0  0  0
 10 11  1  6  0  0  0
 10 18  1  0  0  0  0
 12 13  1  1  0  0  0
 12 20  1  0  0  0  0
 14 15  1  6  0  0  0
 14 22  1  0  0  0  0
 16 17  1  6  0  0  0
 16 24  1  0  0  0  0
 18 19  1  1  0  0  0
 18 25  1  0  0  0  0
 20 21  1  6  0  0  0
 20 27  1  0  0  0  0
 22 23  1  1  0  0  0
 22 29  1  0  0  0  0
 24  2  1  6  0  0  0
 24 31  1  0  0  0  0
 25 26  1  0  0  0  0
 25 33  1  6  0  0  0
 27 28  1  1  0  0  0
 27 35  1  0  0  0  0
 29 30  1  0  0  0  0
 29 37  1  6  0  0  0
 31 32  1  6  0  0  0
 31 39  1  0  0  0  0
 33 34  1  0  0  0  0
 35 36  1  0  0  0  0
 35 41  1  1  0  0  0
 37 38  1  0  0  0  0
 39 40  1  1  0  0  0
 41 42  1  0  0  0  0
M  END
>  <CHROM.1>
-158.85026134,165.84816893,-168.42805306,84.43812866,-178.88853364,169.69133977
-70.71819213,-69.81313771,59.95930451,38.15670749,39.50613093,-16.36532300
-2.64384694,1.04384874,0.64507792

>  <Name>
3c44_lig

>  <RI>
0

>  <Rbt.Current_Directory>
/home/itssahil/PROJECTS/Mol_Feturizer/New_Systems/rnas/3c44

>  <Rbt.Executable>
rbdock ($Id: //depot/dev/client3/rdock/2013.1/src/exe/rbdock.cxx#4 $)

>  <Rbt.Library>
libRbt.so (2013.1, Build901 2013/11/27)

>  <Rbt.Parameter_File>
/export/apps/rDock/src/rDock_2013.1_src/data/scripts/dock_solv.prm

>  <Rbt.Receptor>
prm/pocket_docking_6.prm

>  <SCORE>
-10.2452

>  <SCORE.INTER>
-8.63742

>  <SCORE.INTER.CONST>
1

>  <SCORE.INTER.POLAR>
-1.23567

>  <SCORE.INTER.ROT>
9

>  <SCORE.INTER.SOLV>
12.1174

>  <SCORE.INTER.VDW>
-15.2785

>  <SCORE.INTER.norm>
-0.205653

>  <SCORE.INTRA>
-1.60779

>  <SCORE.INTRA.DIHEDRAL>
-7.20518

>  <SCORE.INTRA.DIHEDRAL.0>
14.8538

>  <SCORE.INTRA.POLAR>
0

>  <SCORE.INTRA.POLAR.0>
0

>  <SCORE.INTRA.REPUL>
0.003361

>  <SCORE.INTRA.REPUL.0>
0

>  <SCORE.INTRA.SOLV>
-3.67221

>  <SCORE.INTRA.SOLV.lig_0>
-100.951

>  <SCORE.INTRA.VDW>
3.81409

>  <SCORE.INTRA.VDW.0>
-5.71388

>  <SCORE.INTRA.norm>
-0.0382808

>  <SCORE.RESTR>
0

>  <SCORE.RESTR.CAVITY>
0

>  <SCORE.RESTR.norm>
0

>  <SCORE.SYSTEM>
0

>  <SCORE.SYSTEM.CONST>
0

>  <SCORE.SYSTEM.DIHEDRAL>
0

>  <SCORE.SYSTEM.SOLV>
0

>  <SCORE.SYSTEM.norm>
0

>  <SCORE.heavy>
42

>  <SCORE.norm>
-0.243934

>  <RMSD>
6.026

$$$$
3c44_lig
 OpenBabel11021811463D
libRbt.so/2013.1/901 2013/11/27
 42 45  0  0  0  0  0  0  0  0999 V2000
   39.1098   36.6224  -15.9574 C   0  0  2  0  0  0  0  0  0  0  0  0
   38.2595   37.7615  -15.7542 O   0  0  0  0  0  0  0  0  0  0  0  0
   35.1350   39.3812  -17.9459 C   0  0  2  0  0  0  0  0  0  0  0  0
   33.9692   39.7527  -18.7625 N   0  0  0  0  0  0  0  0  0  0  0  0
   35.3631   38.4459  -13.3898 C   0  0  1  0  0  0  0  0  0  0  0  0
   36.5908   40.0755   -9.7064 C   0  0  1  0  0  0  0  0  0  0  0  0
   38.7891   35.5627  -14.8981 C   0  0  2  0  0  0  0  0  0  0  0  0
   37.3576   35.2284  -14.9080 N   0  0  0  0  0  0  0  0  0  0  0  0
   36.0696   38.4550  -18.7294 C   0  0  0  0  0  0  0  0  0  0  0  0
   36.7132   39.0574  -13.0123 C   0  0  2  0  0  0  0  0  0  0  0  0
   37.4940   38.1062  -12.2860 O   0  0  0  0  0  0  0  0  0  0  0  0
   37.8205   39.1845   -9.5016 C   0  0  2  0  0  0  0  0  0  0  0  0
   37.3636   37.7973   -9.3406 N   0  0  0  0  0  0  0  0  0  0  0  0
   39.1813   36.0394  -13.4973 C   0  0  1  0  0  0  0  0  0  0  0  0
   39.0121   34.9637  -12.5690 O   0  0  0  0  0  0  0  0  0  0  0  0
   37.3279   38.2370  -17.8825 C   0  0  2  0  0  0  0  0  0  0  0  0
   38.2253   37.3012  -18.5767 N   0  0  0  0  0  0  0  0  0  0  0  0
   36.2422   40.1455  -12.0495 C   0  0  2  0  0  0  0  0  0  0  0  0
   35.8085   39.5739  -10.8043 O   0  0  0  0  0  0  0  0  0  0  0  0
   38.6012   39.5981   -8.2472 C   0  0  1  0  0  0  0  0  0  0  0  0
   39.2559   40.8519   -8.4574 O   0  0  0  0  0  0  0  0  0  0  0  0
   40.6423   36.4929  -13.4934 C   0  0  2  0  0  0  0  0  0  0  0  0
   40.9723   37.0393  -12.2138 O   0  0  0  0  0  0  0  0  0  0  0  0
   37.0226   37.6852  -16.4844 C   0  0  2  0  0  0  0  0  0  0  0  0
   35.0396   40.6849  -12.8077 C   0  0  2  0  0  0  0  0  0  0  0  0
   34.5106   39.5893  -13.5856 O   0  0  0  0  0  0  0  0  0  0  0  0
   37.6723   39.7252   -7.0387 C   0  0  2  0  0  0  0  0  0  0  0  0
   37.1875   38.4254   -6.6896 O   0  0  0  0  0  0  0  0  0  0  0  0
   40.8521   37.5530  -14.5757 C   0  0  2  0  0  0  0  0  0  0  0  0
   40.4893   37.0244  -15.8665 O   0  0  0  0  0  0  0  0  0  0  0  0
   35.9165   38.4329  -15.7427 C   0  0  2  0  0  0  0  0  0  0  0  0
   35.5164   37.6712  -14.5919 O   0  0  0  0  0  0  0  0  0  0  0  0
   35.4819   41.8377  -13.7115 C   0  0  0  0  0  0  0  0  0  0  0  0
   35.9983   42.8956  -12.9008 O   0  0  0  0  0  0  0  0  0  0  0  0
   36.5078   40.6506   -7.4010 C   0  0  1  0  0  0  0  0  0  0  0  0
   35.7961   40.0731   -8.5098 O   0  0  0  0  0  0  0  0  0  0  0  0
   42.3333   37.9396  -14.5660 C   0  0  0  0  0  0  0  0  0  0  0  0
   42.5674   39.0634  -15.4844 O   0  0  0  0  0  0  0  0  0  0  0  0
   34.7093   38.6737  -16.6569 C   0  0  1  0  0  0  0  0  0  0  0  0
   33.7246   39.4510  -15.9719 O   0  0  0  0  0  0  0  0  0  0  0  0
   35.5400   40.8477   -6.2336 C   0  0  0  0  0  0  0  0  0  0  0  0
   34.9045   39.5628   -5.9099 N   0  0  0  0  0  0  0  0  0  0  0  0
  1  2  1  1  0  0  0
  1  7  1  0  0  0  0
  1 30  1  0  0  0  0
  3  4  1  6  0  0  0
  3  9  1  0  0  0  0
  3 39  1  0  0  0  0
  5 10  1  0  0  0  0
  5 26  1  0  0  0  0
  5 32  1  6  0  0  0
  6 12  1  0  0  0  0
  6 36  1  0  0  0  0
  6 19  1  6  0  0  0
  7  8  1  1  0  0  0
  7 14  1  0  0  0  0
  9 16  1  0  0  0  0
 10 11  1  1  0  0  0
 10 18  1  0  0  0  0
 12 13  1  1  0  0  0
 12 20  1  0  0  0  0
 14 15  1  1  0  0  0
 14 22  1  0  0  0  0
 16 17  1  6  0  0  0
 16 24  1  0  0  0  0
 18 19  1  1  0  0  0
 18 25  1  0  0  0  0
 20 21  1  6  0  0  0
 20 27  1  0  0  0  0
 22 23  1  1  0  0  0
 22 29  1  0  0  0  0
 24  2  1  1  0  0  0
 24 31  1  0  0  0  0
 25 26  1  0  0  0  0
 25 33  1  6  0  0  0
 27 28  1  6  0  0  0
 27 35  1  0  0  0  0
 29 30  1  0  0  0  0
 29 37  1  6  0  0  0
 31 32  1  1  0  0  0
 31 39  1  0  0  0  0
 33 34  1  0  0  0  0
 35 36  1  0  0  0  0
 35 41  1  1  0  0  0
 37 38  1  0  0  0  0
 39 40  1  1  0  0  0
 41 42  1  0  0  0  0
M  END
>  <CHROM.1>
-90.33736800,-62.62830826,-88.98720835,119.85317856,-85.51134634,-62.24062944
-173.74221394,135.22076795,-64.49169111,37.32488592,38.66201417,-12.99023033
-1.47684354,-0.48994344,1.39339203

>  <Name>
3c44_lig

>  <RI>
224

>  <Rbt.Current_Directory>
/home/itssahil/PROJECTS/Mol_Feturizer/New_Systems/rnas/3c44

>  <Rbt.Executable>
rbdock ($Id: //depot/dev/client3/rdock/2013.1/src/exe/rbdock.cxx#4 $)

>  <Rbt.Library>
libRbt.so (2013.1, Build901 2013/11/27)

>  <Rbt.Parameter_File>
/export/apps/rDock/src/rDock_2013.1_src/data/scripts/dock_solv.prm

>  <Rbt.Receptor>
prm/pocket_docking_8.prm

>  <SCORE>
-21.8193

>  <SCORE.INTER>
-28.3796

>  <SCORE.INTER.CONST>
1

>  <SCORE.INTER.POLAR>
-4.61525

>  <SCORE.INTER.ROT>
9

>  <SCORE.INTER.SOLV>
20.0095

>  <SCORE.INTER.VDW>
-19.8054

>  <SCORE.INTER.norm>
-0.675706

>  <SCORE.INTRA>
6.56039

>  <SCORE.INTRA.DIHEDRAL>
8.35847

>  <SCORE.INTRA.DIHEDRAL.0>
14.8538

>  <SCORE.INTRA.POLAR>
0

>  <SCORE.INTRA.POLAR.0>
0

>  <SCORE.INTRA.REPUL>
0

>  <SCORE.INTRA.REPUL.0>
0

>  <SCORE.INTRA.SOLV>
2.89352

>  <SCORE.INTRA.SOLV.lig_0>
-100.951

>  <SCORE.INTRA.VDW>
0.934389

>  <SCORE.INTRA.VDW.0>
-5.71388

>  <SCORE.INTRA.norm>
0.1562

>  <SCORE.RESTR>
0

>  <SCORE.RESTR.CAVITY>
0

>  <SCORE.RESTR.norm>
0

>  <SCORE.SYSTEM>
0

>  <SCORE.SYSTEM.CONST>
0

>  <SCORE.SYSTEM.DIHEDRAL>
0

>  <SCORE.SYSTEM.SOLV>
0

>  <SCORE.SYSTEM.norm>
0

>  <SCORE.heavy>
42

>  <SCORE.norm>
-0.519506

>  <RMSD>
6.051

$$$$
3c44_lig
 OpenBabel11021811463D
libRbt.so/2013.1/901 2013/11/27
 42 45  0  0  0  0  0  0  0  0999 V2000
   34.8292   38.5417  -16.2661 C   0  0  2  0  0  0  0  0  0  0  0  0
   35.9848   37.7409  -16.5577 O   0  0  0  0  0  0  0  0  0  0  0  0
   33.4434   34.4668  -16.6611 C   0  0  2  0  0  0  0  0  0  0  0  0
   32.6979   33.2072  -16.8079 N   0  0  0  0  0  0  0  0  0  0  0  0
   36.9415   36.4728  -13.8876 C   0  0  1  0  0  0  0  0  0  0  0  0
   38.0860   38.9564  -10.6869 C   0  0  1  0  0  0  0  0  0  0  0  0
   34.8833   39.8233  -17.1042 C   0  0  2  0  0  0  0  0  0  0  0  0
   35.0271   39.5091  -18.5331 N   0  0  0  0  0  0  0  0  0  0  0  0
   33.8727   35.0025  -18.0301 C   0  0  0  0  0  0  0  0  0  0  0  0
   37.8749   35.9221  -12.8085 C   0  0  2  0  0  0  0  0  0  0  0  0
   37.1114   35.2961  -11.7756 O   0  0  0  0  0  0  0  0  0  0  0  0
   38.5711   38.3436   -9.3690 C   0  0  2  0  0  0  0  0  0  0  0  0
   37.4352   37.6651   -8.7298 N   0  0  0  0  0  0  0  0  0  0  0  0
   36.0435   40.7230  -16.6712 C   0  0  1  0  0  0  0  0  0  0  0  0
   35.9587   41.9696  -17.3685 O   0  0  0  0  0  0  0  0  0  0  0  0
   34.5015   36.3831  -17.8145 C   0  0  2  0  0  0  0  0  0  0  0  0
   34.9829   36.9048  -19.1026 N   0  0  0  0  0  0  0  0  0  0  0  0
   38.4482   37.2321  -12.2718 C   0  0  2  0  0  0  0  0  0  0  0  0
   37.4680   37.9388  -11.4941 O   0  0  0  0  0  0  0  0  0  0  0  0
   39.1020   39.4243   -8.4180 C   0  0  1  0  0  0  0  0  0  0  0  0
   40.3421   39.9482   -8.9003 O   0  0  0  0  0  0  0  0  0  0  0  0
   35.9709   40.9744  -15.1640 C   0  0  2  0  0  0  0  0  0  0  0  0
   37.1156   41.7228  -14.7461 O   0  0  0  0  0  0  0  0  0  0  0  0
   35.6697   36.3624  -16.8210 C   0  0  2  0  0  0  0  0  0  0  0  0
   38.6997   37.9781  -13.5726 C   0  0  2  0  0  0  0  0  0  0  0  0
   37.7201   37.5042  -14.5220 O   0  0  0  0  0  0  0  0  0  0  0  0
   38.1029   40.5743   -8.2804 C   0  0  2  0  0  0  0  0  0  0  0  0
   36.9419   40.0981   -7.5938 O   0  0  0  0  0  0  0  0  0  0  0  0
   35.9314   39.6369  -14.4232 C   0  0  2  0  0  0  0  0  0  0  0  0
   34.8004   38.8588  -14.8619 O   0  0  0  0  0  0  0  0  0  0  0  0
   35.3720   35.6234  -15.5180 C   0  0  2  0  0  0  0  0  0  0  0  0
   36.5983   35.4142  -14.7988 O   0  0  0  0  0  0  0  0  0  0  0  0
   40.1214   37.6896  -14.0593 C   0  0  0  0  0  0  0  0  0  0  0  0
   41.0544   38.3044  -13.1679 O   0  0  0  0  0  0  0  0  0  0  0  0
   37.7291   41.0788   -9.6767 C   0  0  1  0  0  0  0  0  0  0  0  0
   37.1318   39.9932  -10.4075 O   0  0  0  0  0  0  0  0  0  0  0  0
   35.8106   39.9382  -12.9272 C   0  0  0  0  0  0  0  0  0  0  0  0
   34.4058   40.1900  -12.5751 O   0  0  0  0  0  0  0  0  0  0  0  0
   34.6908   34.2778  -15.7942 C   0  0  1  0  0  0  0  0  0  0  0  0
   34.3411   33.6446  -14.5614 O   0  0  0  0  0  0  0  0  0  0  0  0
   36.7453   42.2484   -9.6255 C   0  0  0  0  0  0  0  0  0  0  0  0
   35.5309   41.8282   -8.9125 N   0  0  0  0  0  0  0  0  0  0  0  0
  1  2  1  1  0  0  0
  1  7  1  0  0  0  0
  1 30  1  0  0  0  0
  3  4  1  6  0  0  0
  3  9  1  0  0  0  0
  3 39  1  0  0  0  0
  5 10  1  0  0  0  0
  5 26  1  0  0  0  0
  5 32  1  6  0  0  0
  6 12  1  0  0  0  0
  6 36  1  0  0  0  0
  6 19  1  6  0  0  0
  7  8  1  6  0  0  0
  7 14  1  0  0  0  0
  9 16  1  0  0  0  0
 10 11  1  1  0  0  0
 10 18  1  0  0  0  0
 12 13  1  1  0  0  0
 12 20  1  0  0  0  0
 14 15  1  6  0  0  0
 14 22  1  0  0  0  0
 16 17  1  6  0  0  0
 16 24  1  0  0  0  0
 18 19  1  1  0  0  0
 18 25  1  0  0  0  0
 20 21  1  6  0  0  0
 20 27  1  0  0  0  0
 22 23  1  1  0  0  0
 22 29  1  0  0  0  0
 24  2  1  1  0  0  0
 24 31  1  0  0  0  0
 25 26  1  0  0  0  0
 25 33  1  6  0  0  0
 27 28  1  6  0  0  0
 27 35  1  0  0  0  0
 29 30  1  0  0  0  0
 29 37  1  1  0  0  0
 31 32  1  6  0  0  0
 31 39  1  0  0  0  0
 33 34  1  0  0  0  0
 35 36  1  0  0  0  0
 35 41  1  1  0  0  0
 37 38  1  0  0  0  0
 39 40  1  1  0  0  0
 41 42  1  0  0  0  0
M  END
>  <CHROM.1>
-131.92299723,156.84463451,-85.59058796,163.77376590,47.52927339,-68.70704658
82.73465440,90.06297595,-58.27471334,36.54319050,38.24152720,-13.57337211
2.82117808,1.17123476,3.04894784

>  <Name>
3c44_lig

>  <RI>
0

>  <Rbt.Current_Directory>
/home/itssahil/PROJECTS/Mol_Feturizer/New_Systems/rnas/3c44

>  <Rbt.Executable>
rbdock ($Id: //depot/dev/client3/rdock/2013.1/src/exe/rbdock.cxx#4 $)

>  <Rbt.Library>
libRbt.so (2013.1, Build901 2013/11/27)

>  <Rbt.Parameter_File>
/export/apps/rDock/src/rDock_2013.1_src/data/scripts/dock_solv.prm

>  <Rbt.Receptor>
prm/pocket_docking_5.prm

>  <SCORE>
-6.00665

>  <SCORE.INTER>
-11.815

>  <SCORE.INTER.CONST>
1

>  <SCORE.INTER.POLAR>
-2.33822

>  <SCORE.INTER.ROT>
9

>  <SCORE.INTER.SOLV>
17.5147

>  <SCORE.INTER.VDW>
-15.5208

>  <SCORE.INTER.norm>
-0.281309

>  <SCORE.INTRA>
5.80833

>  <SCORE.INTRA.DIHEDRAL>
4.60376

>  <SCORE.INTRA.DIHEDRAL.0>
14.8538

>  <SCORE.INTRA.POLAR>
0

>  <SCORE.INTRA.POLAR.0>
0

>  <SCORE.INTRA.REPUL>
0.102718

>  <SCORE.INTRA.REPUL.0>
0

>  <SCORE.INTRA.SOLV>
2.19891

>  <SCORE.INTRA.SOLV.lig_0>
-100.951

>  <SCORE.INTRA.VDW>
1.8934

>  <SCORE.INTRA.VDW.0>
-5.71388

>  <SCORE.INTRA.norm>
0.138293

>  <SCORE.RESTR>
0

>  <SCORE.RESTR.CAVITY>
0

>  <SCORE.RESTR.norm>
0

>  <SCORE.SYSTEM>
0

>  <SCORE.SYSTEM.CONST>
0

>  <SCORE.SYSTEM.DIHEDRAL>
0

>  <SCORE.SYSTEM.SOLV>
0

>  <SCORE.SYSTEM.norm>
0

>  <SCORE.heavy>
42

>  <SCORE.norm>
-0.143016

>  <RMSD>
6.080

$$$$
3c44_lig
 OpenBabel11021811463D
libRbt.so/2013.1/901 2013/11/27
 42 45  0  0  0  0  0  0  0  0999 V2000
   36.7533   38.7113  -12.6724 C   0  0  2  0  0  0  0  0  0  0  0  0
   36.5119   38.8191  -11.2611 O   0  0  0  0  0  0  0  0  0  0  0  0
   39.2484   40.1821   -8.4605 C   0  0  2  0  0  0  0  0  0  0  0  0
   40.3039   40.4686   -7.4767 N   0  0  0  0  0  0  0  0  0  0  0  0
   39.5159   40.5027  -13.0564 C   0  0  1  0  0  0  0  0  0  0  0  0
   40.4990   43.3724  -15.8523 C   0  0  1  0  0  0  0  0  0  0  0  0
   35.4104   38.6913  -13.4101 C   0  0  2  0  0  0  0  0  0  0  0  0
   34.5960   39.8602  -13.0475 N   0  0  0  0  0  0  0  0  0  0  0  0
   38.4226   38.9672   -8.0275 C   0  0  0  0  0  0  0  0  0  0  0  0
   40.1007   39.9757  -14.3676 C   0  0  2  0  0  0  0  0  0  0  0  0
   41.5141   39.8093  -14.2398 O   0  0  0  0  0  0  0  0  0  0  0  0
   41.0337   43.0216  -17.2448 C   0  0  2  0  0  0  0  0  0  0  0  0
   42.4372   42.6080  -17.1094 N   0  0  0  0  0  0  0  0  0  0  0  0
   34.6224   37.4168  -13.0974 C   0  0  1  0  0  0  0  0  0  0  0  0
   33.4566   37.3684  -13.9257 O   0  0  0  0  0  0  0  0  0  0  0  0
   37.2546   38.8234   -9.0089 C   0  0  2  0  0  0  0  0  0  0  0  0
   36.4714   37.6281   -8.6612 N   0  0  0  0  0  0  0  0  0  0  0  0
   39.8261   41.1754  -15.2720 C   0  0  2  0  0  0  0  0  0  0  0  0
   40.7108   42.2641  -14.9603 O   0  0  0  0  0  0  0  0  0  0  0  0
   40.9619   44.2309  -18.1864 C   0  0  1  0  0  0  0  0  0  0  0  0
   39.6030   44.5192  -18.5258 O   0  0  0  0  0  0  0  0  0  0  0  0
   35.4932   36.1885  -13.3683 C   0  0  2  0  0  0  0  0  0  0  0  0
   34.7932   35.0064  -12.9714 O   0  0  0  0  0  0  0  0  0  0  0  0
   37.7081   38.7104  -10.4698 C   0  0  2  0  0  0  0  0  0  0  0  0
   38.4118   41.5299  -14.8403 C   0  0  2  0  0  0  0  0  0  0  0  0
   38.2853   41.1330  -13.4576 O   0  0  0  0  0  0  0  0  0  0  0  0
   41.5800   45.4704  -17.5373 C   0  0  2  0  0  0  0  0  0  0  0  0
   42.9890   45.2659  -17.3997 O   0  0  0  0  0  0  0  0  0  0  0  0
   36.7990   36.3029  -12.5803 C   0  0  2  0  0  0  0  0  0  0  0  0
   37.4969   37.5094  -12.9471 O   0  0  0  0  0  0  0  0  0  0  0  0
   38.7276   39.7657  -10.8935 C   0  0  2  0  0  0  0  0  0  0  0  0
   39.2933   39.3983  -12.1622 O   0  0  0  0  0  0  0  0  0  0  0  0
   37.4076   40.7830  -15.7208 C   0  0  0  0  0  0  0  0  0  0  0  0
   36.0819   41.1487  -15.3314 O   0  0  0  0  0  0  0  0  0  0  0  0
   40.9348   45.6885  -16.1662 C   0  0  1  0  0  0  0  0  0  0  0  0
   41.1901   44.5290  -15.3540 O   0  0  0  0  0  0  0  0  0  0  0  0
   37.6546   35.0797  -12.9196 C   0  0  0  0  0  0  0  0  0  0  0  0
   39.0071   35.2410  -12.3667 O   0  0  0  0  0  0  0  0  0  0  0  0
   39.8383   39.9067   -9.8459 C   0  0  1  0  0  0  0  0  0  0  0  0
   40.7307   40.9595  -10.2181 O   0  0  0  0  0  0  0  0  0  0  0  0
   41.4856   46.9266  -15.4576 C   0  0  0  0  0  0  0  0  0  0  0  0
   42.8940   46.6967  -15.1067 N   0  0  0  0  0  0  0  0  0  0  0  0
  1  2  1  1  0  0  0
  1  7  1  0  0  0  0
  1 30  1  0  0  0  0
  3  4  1  1  0  0  0
  3  9  1  0  0  0  0
  3 39  1  0  0  0  0
  5 10  1  0  0  0  0
  5 26  1  0  0  0  0
  5 32  1  1  0  0  0
  6 12  1  0  0  0  0
  6 36  1  0  0  0  0
  6 19  1  1  0  0  0
  7  8  1  1  0  0  0
  7 14  1  0  0  0  0
  9 16  1  0  0  0  0
 10 11  1  1  0  0  0
 10 18  1  0  0  0  0
 12 13  1  1  0  0  0
 12 20  1  0  0  0  0
 14 15  1  6  0  0  0
 14 22  1  0  0  0  0
 16 17  1  1  0  0  0
 16 24  1  0  0  0  0
 18 19  1  1  0  0  0
 18 25  1  0  0  0  0
 20 21  1  1  0  0  0
 20 27  1  0  0  0  0
 22 23  1  1  0  0  0
 22 29  1  0  0  0  0
 24  2  1  6  0  0  0
 24 31  1  0  0  0  0
 25 26  1  0  0  0  0
 25 33  1  6  0  0  0
 27 28  1  1  0  0  0
 27 35  1  0  0  0  0
 29 30  1  0  0  0  0
 29 37  1  6  0  0  0
 31 32  1  6  0  0  0
 31 39  1  0  0  0  0
 33 34  1  0  0  0  0
 35 36  1  0  0  0  0
 35 41  1  1  0  0  0
 37 38  1  0  0  0  0
 39 40  1  6  0  0  0
 41 42  1  0  0  0  0
M  END
>  <CHROM.1>
174.10283365,-179.31189864,-71.69857914,177.21413517,-179.06270225,-178.49353252
170.76924915,141.18343975,-67.32473850,38.76276670,40.50165903,-13.47323666
2.30489067,0.78653317,1.95288203

>  <Name>
3c44_lig

>  <RI>
224

>  <Rbt.Current_Directory>
/home/itssahil/PROJECTS/Mol_Feturizer/New_Systems/rnas/3c44

>  <Rbt.Executable>
rbdock ($Id: //depot/dev/client3/rdock/2013.1/src/exe/rbdock.cxx#4 $)

>  <Rbt.Library>
libRbt.so (2013.1, Build901 2013/11/27)

>  <Rbt.Parameter_File>
/export/apps/rDock/src/rDock_2013.1_src/data/scripts/dock_solv.prm

>  <Rbt.Receptor>
prm/pocket_docking_8.prm

>  <SCORE>
-20.3532

>  <SCORE.INTER>
-17.7468

>  <SCORE.INTER.CONST>
1

>  <SCORE.INTER.POLAR>
-3.74009

>  <SCORE.INTER.ROT>
9

>  <SCORE.INTER.SOLV>
22.0821

>  <SCORE.INTER.VDW>
-16.3249

>  <SCORE.INTER.norm>
-0.422542

>  <SCORE.INTRA>
-2.60646

>  <SCORE.INTRA.DIHEDRAL>
-7.79324

>  <SCORE.INTRA.DIHEDRAL.0>
14.8538

>  <SCORE.INTRA.POLAR>
0

>  <SCORE.INTRA.POLAR.0>
0

>  <SCORE.INTRA.REPUL>
0

>  <SCORE.INTRA.REPUL.0>
0

>  <SCORE.INTRA.SOLV>
-1.3621

>  <SCORE.INTRA.SOLV.lig_0>
-100.951

>  <SCORE.INTRA.VDW>
1.97121

>  <SCORE.INTRA.VDW.0>
-5.71388

>  <SCORE.INTRA.norm>
-0.0620586

>  <SCORE.RESTR>
0

>  <SCORE.RESTR.CAVITY>
0

>  <SCORE.RESTR.norm>
0

>  <SCORE.SYSTEM>
0

>  <SCORE.SYSTEM.CONST>
0

>  <SCORE.SYSTEM.DIHEDRAL>
0

>  <SCORE.SYSTEM.SOLV>
0

>  <SCORE.SYSTEM.norm>
0

>  <SCORE.heavy>
42

>  <SCORE.norm>
-0.484601

>  <RMSD>
6.086

$$$$
3c44_lig
 OpenBabel11021811463D
libRbt.so/2013.1/901 2013/11/27
 42 45  0  0  0  0  0  0  0  0999 V2000
   34.4573   37.2428  -17.5965 C   0  0  2  0  0  0  0  0  0  0  0  0
   34.0081   36.4502  -16.4866 O   0  0  0  0  0  0  0  0  0  0  0  0
   36.0936   35.1371  -13.1525 C   0  0  2  0  0  0  0  0  0  0  0  0
   36.9414   34.5454  -12.1061 N   0  0  0  0  0  0  0  0  0  0  0  0
   37.1728   38.7407  -15.7327 C   0  0  1  0  0  0  0  0  0  0  0  0
   39.8990   41.7337  -15.8011 C   0  0  1  0  0  0  0  0  0  0  0  0
   33.4680   38.3903  -17.8254 C   0  0  2  0  0  0  0  0  0  0  0  0
   33.2763   39.1703  -16.5942 N   0  0  0  0  0  0  0  0  0  0  0  0
   35.3607   34.0439  -13.9355 C   0  0  0  0  0  0  0  0  0  0  0  0
   37.9307   39.3894  -16.8920 C   0  0  2  0  0  0  0  0  0  0  0  0
   39.3084   39.0134  -16.8458 O   0  0  0  0  0  0  0  0  0  0  0  0
   40.8108   41.9584  -14.5904 C   0  0  2  0  0  0  0  0  0  0  0  0
   40.0761   42.7599  -13.6019 N   0  0  0  0  0  0  0  0  0  0  0  0
   32.1105   37.8681  -18.3025 C   0  0  1  0  0  0  0  0  0  0  0  0
   31.2761   38.9763  -18.6532 O   0  0  0  0  0  0  0  0  0  0  0  0
   34.3852   34.7322  -14.8960 C   0  0  2  0  0  0  0  0  0  0  0  0
   33.7052   33.7142  -15.7109 N   0  0  0  0  0  0  0  0  0  0  0  0
   37.8074   40.8577  -16.4899 C   0  0  2  0  0  0  0  0  0  0  0  0
   38.6557   41.1539  -15.3684 O   0  0  0  0  0  0  0  0  0  0  0  0
   42.0864   42.7116  -14.9900 C   0  0  1  0  0  0  0  0  0  0  0  0
   42.9397   41.8696  -15.7696 O   0  0  0  0  0  0  0  0  0  0  0  0
   32.3013   36.9656  -19.5229 C   0  0  2  0  0  0  0  0  0  0  0  0
   31.0457   36.3929  -19.8978 O   0  0  0  0  0  0  0  0  0  0  0  0
   35.0709   35.7371  -15.8301 C   0  0  2  0  0  0  0  0  0  0  0  0
   36.3518   40.9040  -16.0527 C   0  0  2  0  0  0  0  0  0  0  0  0
   36.0225   39.5883  -15.5569 O   0  0  0  0  0  0  0  0  0  0  0  0
   41.7535   43.9629  -15.8042 C   0  0  2  0  0  0  0  0  0  0  0  0
   41.0893   44.9034  -14.9554 O   0  0  0  0  0  0  0  0  0  0  0  0
   33.2950   35.8527  -19.1863 C   0  0  2  0  0  0  0  0  0  0  0  0
   34.5544   36.4189  -18.7732 O   0  0  0  0  0  0  0  0  0  0  0  0
   36.0111   36.7107  -15.1226 C   0  0  2  0  0  0  0  0  0  0  0  0
   36.8071   37.3993  -16.1009 O   0  0  0  0  0  0  0  0  0  0  0  0
   35.4720   41.2773  -17.2478 C   0  0  0  0  0  0  0  0  0  0  0  0
   35.5726   40.2534  -18.2400 O   0  0  0  0  0  0  0  0  0  0  0  0
   40.8501   43.5689  -16.9757 C   0  0  1  0  0  0  0  0  0  0  0  0
   39.6438   42.9919  -16.4455 O   0  0  0  0  0  0  0  0  0  0  0  0
   33.4898   35.0072  -20.4474 C   0  0  0  0  0  0  0  0  0  0  0  0
   34.5099   33.9755  -20.2105 O   0  0  0  0  0  0  0  0  0  0  0  0
   36.9205   35.9731  -14.1327 C   0  0  1  0  0  0  0  0  0  0  0  0
   37.7284   36.9112  -13.4183 O   0  0  0  0  0  0  0  0  0  0  0  0
   40.4873   44.7661  -17.8552 C   0  0  0  0  0  0  0  0  0  0  0  0
   41.6989   45.2591  -18.5249 N   0  0  0  0  0  0  0  0  0  0  0  0
  1  2  1  1  0  0  0
  1  7  1  0  0  0  0
  1 30  1  0  0  0  0
  3  4  1  1  0  0  0
  3  9  1  0  0  0  0
  3 39  1  0  0  0  0
  5 10  1  0  0  0  0
  5 26  1  0  0  0  0
  5 32  1  6  0  0  0
  6 12  1  0  0  0  0
  6 36  1  0  0  0  0
  6 19  1  1  0  0  0
  7  8  1  1  0  0  0
  7 14  1  0  0  0  0
  9 16  1  0  0  0  0
 10 11  1  1  0  0  0
 10 18  1  0  0  0  0
 12 13  1  1  0  0  0
 12 20  1  0  0  0  0
 14 15  1  6  0  0  0
 14 22  1  0  0  0  0
 16 17  1  6  0  0  0
 16 24  1  0  0  0  0
 18 19  1  1  0  0  0
 18 25  1  0  0  0  0
 20 21  1  6  0  0  0
 20 27  1  0  0  0  0
 22 23  1  1  0  0  0
 22 29  1  0  0  0  0
 24  2  1  1  0  0  0
 24 31  1  0  0  0  0
 25 26  1  0  0  0  0
 25 33  1  6  0  0  0
 27 28  1  1  0  0  0
 27 35  1  0  0  0  0
 29 30  1  0  0  0  0
 29 37  1  6  0  0  0
 31 32  1  6  0  0  0
 31 39  1  0  0  0  0
 33 34  1  0  0  0  0
 35 36  1  0  0  0  0
 35 41  1  1  0  0  0
 37 38  1  0  0  0  0
 39 40  1  1  0  0  0
 41 42  1  0  0  0  0
M  END
>  <CHROM.1>
-155.08199682,-176.17482800,-176.62106426,97.30191303,-168.01357256,63.48982519
176.02179538,148.52460992,66.48318823,36.71986338,38.94141011,-16.49498852
2.66220598,0.67135706,2.47511513

>  <Name>
3c44_lig

>  <RI>
0

>  <Rbt.Current_Directory>
/home/itssahil/PROJECTS/Mol_Feturizer/New_Systems/rnas/3c44

>  <Rbt.Executable>
rbdock ($Id: //depot/dev/client3/rdock/2013.1/src/exe/rbdock.cxx#4 $)

>  <Rbt.Library>
libRbt.so (2013.1, Build901 2013/11/27)

>  <Rbt.Parameter_File>
/export/apps/rDock/src/rDock_2013.1_src/data/scripts/dock_solv.prm

>  <Rbt.Receptor>
prm/pocket_docking_7.prm

>  <SCORE>
-12.1159

>  <SCORE.INTER>
-11.6081

>  <SCORE.INTER.CONST>
1

>  <SCORE.INTER.POLAR>
-1.71286

>  <SCORE.INTER.ROT>
9

>  <SCORE.INTER.SOLV>
13.0411

>  <SCORE.INTER.VDW>
-15.9762

>  <SCORE.INTER.norm>
-0.276383

>  <SCORE.INTRA>
-0.507801

>  <SCORE.INTRA.DIHEDRAL>
-2.2794

>  <SCORE.INTRA.DIHEDRAL.0>
14.8538

>  <SCORE.INTRA.POLAR>
0

>  <SCORE.INTRA.POLAR.0>
0

>  <SCORE.INTRA.REPUL>
0

>  <SCORE.INTRA.REPUL.0>
0

>  <SCORE.INTRA.SOLV>
-0.469942

>  <SCORE.INTRA.SOLV.lig_0>
-100.951

>  <SCORE.INTRA.VDW>
0.866872

>  <SCORE.INTRA.VDW.0>
-5.71388

>  <SCORE.INTRA.norm>
-0.0120905

>  <SCORE.RESTR>
0

>  <SCORE.RESTR.CAVITY>
0

>  <SCORE.RESTR.norm>
0

>  <SCORE.SYSTEM>
0

>  <SCORE.SYSTEM.CONST>
0

>  <SCORE.SYSTEM.DIHEDRAL>
0

>  <SCORE.SYSTEM.SOLV>
0

>  <SCORE.SYSTEM.norm>
0

>  <SCORE.heavy>
42

>  <SCORE.norm>
-0.288474

>  <RMSD>
6.099

$$$$
3c44_lig
 OpenBabel11021811463D
libRbt.so/2013.1/901 2013/11/27
 42 45  0  0  0  0  0  0  0  0999 V2000
   31.2808   36.1901  -16.1911 C   0  0  2  0  0  0  0  0  0  0  0  0
   31.7696   36.4575  -14.8677 O   0  0  0  0  0  0  0  0  0  0  0  0
   35.0331   34.8646  -12.8673 C   0  0  2  0  0  0  0  0  0  0  0  0
   36.3018   34.3428  -12.3362 N   0  0  0  0  0  0  0  0  0  0  0  0
   34.9152   39.0147  -13.1605 C   0  0  1  0  0  0  0  0  0  0  0  0
   38.4054   40.7707  -11.6704 C   0  0  1  0  0  0  0  0  0  0  0  0
   30.1957   37.2139  -16.5406 C   0  0  2  0  0  0  0  0  0  0  0  0
   30.6961   38.5859  -16.3723 N   0  0  0  0  0  0  0  0  0  0  0  0
   34.6728   34.1702  -14.1838 C   0  0  0  0  0  0  0  0  0  0  0  0
   36.0484   39.3039  -14.1460 C   0  0  2  0  0  0  0  0  0  0  0  0
   36.8920   38.1574  -14.2701 O   0  0  0  0  0  0  0  0  0  0  0  0
   39.5476   41.0608  -12.6496 C   0  0  2  0  0  0  0  0  0  0  0  0
   40.1702   39.7835  -13.0238 N   0  0  0  0  0  0  0  0  0  0  0  0
   28.9512   37.0255  -15.6695 C   0  0  1  0  0  0  0  0  0  0  0  0
   27.9135   37.8932  -16.1363 O   0  0  0  0  0  0  0  0  0  0  0  0
   33.2755   34.6460  -14.5950 C   0  0  2  0  0  0  0  0  0  0  0  0
   32.9189   34.0463  -15.8897 N   0  0  0  0  0  0  0  0  0  0  0  0
   36.7968   40.3839  -13.3673 C   0  0  2  0  0  0  0  0  0  0  0  0
   37.5018   39.8145  -12.2520 O   0  0  0  0  0  0  0  0  0  0  0  0
   40.6113   41.9618  -12.0085 C   0  0  1  0  0  0  0  0  0  0  0  0
   40.1063   43.2892  -11.8416 O   0  0  0  0  0  0  0  0  0  0  0  0
   28.4772   35.5732  -15.7486 C   0  0  2  0  0  0  0  0  0  0  0  0
   27.3828   35.3754  -14.8496 O   0  0  0  0  0  0  0  0  0  0  0  0
   33.1705   36.1718  -14.7105 C   0  0  2  0  0  0  0  0  0  0  0  0
   35.6310   41.2179  -12.8599 C   0  0  2  0  0  0  0  0  0  0  0  0
   34.5094   40.3206  -12.7103 O   0  0  0  0  0  0  0  0  0  0  0  0
   41.0372   41.4225  -10.6419 C   0  0  2  0  0  0  0  0  0  0  0  0
   41.7428   40.1925  -10.8300 O   0  0  0  0  0  0  0  0  0  0  0  0
   29.6277   34.6380  -15.3730 C   0  0  2  0  0  0  0  0  0  0  0  0
   30.7501   34.8530  -16.2512 O   0  0  0  0  0  0  0  0  0  0  0  0
   33.7407   36.9321  -13.5149 C   0  0  2  0  0  0  0  0  0  0  0  0
   33.8571   38.3249  -13.8483 O   0  0  0  0  0  0  0  0  0  0  0  0
   35.3187   42.3249  -13.8690 C   0  0  0  0  0  0  0  0  0  0  0  0
   34.7502   43.4399  -13.1787 O   0  0  0  0  0  0  0  0  0  0  0  0
   39.7889   41.1972   -9.7846 C   0  0  1  0  0  0  0  0  0  0  0  0
   38.9468   40.2396  -10.4505 O   0  0  0  0  0  0  0  0  0  0  0  0
   29.1217   33.2000  -15.5129 C   0  0  0  0  0  0  0  0  0  0  0  0
   29.0293   32.8336  -16.9335 O   0  0  0  0  0  0  0  0  0  0  0  0
   35.1109   36.3736  -13.1129 C   0  0  1  0  0  0  0  0  0  0  0  0
   35.5849   37.0385  -11.9398 O   0  0  0  0  0  0  0  0  0  0  0  0
   40.1319   40.6760   -8.3885 C   0  0  0  0  0  0  0  0  0  0  0  0
   38.8947   40.5310   -7.6088 N   0  0  0  0  0  0  0  0  0  0  0  0
  1  2  1  1  0  0  0
  1  7  1  0  0  0  0
  1 30  1  0  0  0  0
  3  4  1  6  0  0  0
  3  9  1  0  0  0  0
  3 39  1  0  0  0  0
  5 10  1  0  0  0  0
  5 26  1  0  0  0  0
  5 32  1  6  0  0  0
  6 12  1  0  0  0  0
  6 36  1  0  0  0  0
  6 19  1  6  0  0  0
  7  8  1  1  0  0  0
  7 14  1  0  0  0  0
  9 16  1  0  0  0  0
 10 11  1  1  0  0  0
 10 18  1  0  0  0  0
 12 13  1  1  0  0  0
 12 20  1  0  0  0  0
 14 15  1  6  0  0  0
 14 22  1  0  0  0  0
 16 17  1  6  0  0  0
 16 24  1  0  0  0  0
 18 19  1  1  0  0  0
 18 25  1  0  0  0  0
 20 21  1  1  0  0  0
 20 27  1  0  0  0  0
 22 23  1  1  0  0  0
 22 29  1  0  0  0  0
 24  2  1  1  0  0  0
 24 31  1  0  0  0  0
 25 26  1  0  0  0  0
 25 33  1  6  0  0  0
 27 28  1  6  0  0  0
 27 35  1  0  0  0  0
 29 30  1  0  0  0  0
 29 37  1  6  0  0  0
 31 32  1  6  0  0  0
 31 39  1  0  0  0  0
 33 34  1  0  0  0  0
 35 36  1  0  0  0  0
 35 41  1  1  0  0  0
 37 38  1  0  0  0  0
 39 40  1  1  0  0  0
 41 42  1  0  0  0  0
M  END
>  <CHROM.1>
-145.82160253,107.41076274,-68.26194760,169.00955960,-76.89871765,-151.76111840
74.69402188,-150.92559244,177.93400901,34.75445512,38.15137852,-13.48120783
2.64580996,0.45706546,3.13305884

>  <Name>
3c44_lig

>  <RI>
0

>  <Rbt.Current_Directory>
/home/itssahil/PROJECTS/Mol_Feturizer/New_Systems/rnas/3c44

>  <Rbt.Executable>
rbdock ($Id: //depot/dev/client3/rdock/2013.1/src/exe/rbdock.cxx#4 $)

>  <Rbt.Library>
libRbt.so (2013.1, Build901 2013/11/27)

>  <Rbt.Parameter_File>
/export/apps/rDock/src/rDock_2013.1_src/data/scripts/dock_solv.prm

>  <Rbt.Receptor>
prm/pocket_docking_5.prm

>  <SCORE>
-9.49516

>  <SCORE.INTER>
-21.9932

>  <SCORE.INTER.CONST>
1

>  <SCORE.INTER.POLAR>
-2.46147

>  <SCORE.INTER.ROT>
9

>  <SCORE.INTER.SOLV>
19.7082

>  <SCORE.INTER.VDW>
-22.6266

>  <SCORE.INTER.norm>
-0.523647

>  <SCORE.INTRA>
12.4793

>  <SCORE.INTRA.DIHEDRAL>
4.99955

>  <SCORE.INTRA.DIHEDRAL.0>
14.8538

>  <SCORE.INTRA.POLAR>
0

>  <SCORE.INTRA.POLAR.0>
0

>  <SCORE.INTRA.REPUL>
0

>  <SCORE.INTRA.REPUL.0>
0

>  <SCORE.INTRA.SOLV>
-0.749847

>  <SCORE.INTRA.SOLV.lig_0>
-100.951

>  <SCORE.INTRA.VDW>
10.3544

>  <SCORE.INTRA.VDW.0>
-5.71388

>  <SCORE.INTRA.norm>
0.297125

>  <SCORE.RESTR>
0.0187688

>  <SCORE.RESTR.CAVITY>
0.0187688

>  <SCORE.RESTR.norm>
0.000446876

>  <SCORE.SYSTEM>
0

>  <SCORE.SYSTEM.CONST>
0

>  <SCORE.SYSTEM.DIHEDRAL>
0

>  <SCORE.SYSTEM.SOLV>
0

>  <SCORE.SYSTEM.norm>
0

>  <SCORE.heavy>
42

>  <SCORE.norm>
-0.226075

>  <RMSD>
6.106

$$$$
3c44_lig
 OpenBabel11021811463D
libRbt.so/2013.1/901 2013/11/27
 42 45  0  0  0  0  0  0  0  0999 V2000
   36.1564   38.2552  -15.8581 C   0  0  2  0  0  0  0  0  0  0  0  0
   35.0508   37.3718  -15.6149 O   0  0  0  0  0  0  0  0  0  0  0  0
   34.7650   33.8669  -13.4185 C   0  0  2  0  0  0  0  0  0  0  0  0
   34.8044   32.5425  -12.7797 N   0  0  0  0  0  0  0  0  0  0  0  0
   37.6184   37.3808  -12.6455 C   0  0  1  0  0  0  0  0  0  0  0  0
   39.1916   39.3406   -9.2879 C   0  0  1  0  0  0  0  0  0  0  0  0
   35.6215   39.6001  -16.3612 C   0  0  2  0  0  0  0  0  0  0  0  0
   34.6309   40.1528  -15.4263 N   0  0  0  0  0  0  0  0  0  0  0  0
   34.3915   33.7413  -14.8984 C   0  0  0  0  0  0  0  0  0  0  0  0
   39.1033   37.7470  -12.6431 C   0  0  2  0  0  0  0  0  0  0  0  0
   39.8738   36.6582  -12.1305 O   0  0  0  0  0  0  0  0  0  0  0  0
   38.9773   38.7485   -7.8910 C   0  0  2  0  0  0  0  0  0  0  0  0
   37.6164   38.1980   -7.8269 N   0  0  0  0  0  0  0  0  0  0  0  0
   34.9807   39.4620  -17.7444 C   0  0  1  0  0  0  0  0  0  0  0  0
   34.6414   40.7614  -18.2383 O   0  0  0  0  0  0  0  0  0  0  0  0
   34.2170   35.1574  -15.4573 C   0  0  2  0  0  0  0  0  0  0  0  0
   33.9171   35.0793  -16.8950 N   0  0  0  0  0  0  0  0  0  0  0  0
   39.0893   38.8704  -11.6084 C   0  0  2  0  0  0  0  0  0  0  0  0
   38.9039   38.3438  -10.2842 O   0  0  0  0  0  0  0  0  0  0  0  0
   39.1296   39.8218   -6.8053 C   0  0  1  0  0  0  0  0  0  0  0  0
   40.4984   40.2167   -6.6821 O   0  0  0  0  0  0  0  0  0  0  0  0
   35.9619   38.7897  -18.7064 C   0  0  2  0  0  0  0  0  0  0  0  0
   35.3218   38.5632  -19.9649 O   0  0  0  0  0  0  0  0  0  0  0  0
   35.4561   36.0389  -15.2572 C   0  0  2  0  0  0  0  0  0  0  0  0
   37.8400   39.6247  -12.0353 C   0  0  2  0  0  0  0  0  0  0  0  0
   36.9500   38.6558  -12.6306 O   0  0  0  0  0  0  0  0  0  0  0  0
   38.2892   41.0574   -7.1322 C   0  0  2  0  0  0  0  0  0  0  0  0
   36.9042   40.7125   -7.0374 O   0  0  0  0  0  0  0  0  0  0  0  0
   36.4248   37.4566  -18.1166 C   0  0  2  0  0  0  0  0  0  0  0  0
   37.0410   37.6689  -16.8311 O   0  0  0  0  0  0  0  0  0  0  0  0
   36.0211   36.0141  -13.8385 C   0  0  2  0  0  0  0  0  0  0  0  0
   37.3211   36.6263  -13.8333 O   0  0  0  0  0  0  0  0  0  0  0  0
   38.2204   40.7129  -13.0416 C   0  0  0  0  0  0  0  0  0  0  0  0
   39.1403   41.6175  -12.4264 O   0  0  0  0  0  0  0  0  0  0  0  0
   38.6271   41.5287   -8.5490 C   0  0  1  0  0  0  0  0  0  0  0  0
   38.3172   40.4660   -9.4677 O   0  0  0  0  0  0  0  0  0  0  0  0
   37.4381   36.8461  -19.0882 C   0  0  0  0  0  0  0  0  0  0  0  0
   37.8785   35.5320  -18.5979 O   0  0  0  0  0  0  0  0  0  0  0  0
   36.1168   34.5773  -13.3115 C   0  0  1  0  0  0  0  0  0  0  0  0
   36.5626   34.5833  -11.9535 O   0  0  0  0  0  0  0  0  0  0  0  0
   37.8407   42.7785   -8.9464 C   0  0  0  0  0  0  0  0  0  0  0  0
   38.2935   43.2353  -10.2677 N   0  0  0  0  0  0  0  0  0  0  0  0
  1  2  1  6  0  0  0
  1  7  1  0  0  0  0
  1 30  1  0  0  0  0
  3  4  1  6  0  0  0
  3  9  1  0  0  0  0
  3 39  1  0  0  0  0
  5 10  1  0  0  0  0
  5 26  1  0  0  0  0
  5 32  1  6  0  0  0
  6 12  1  0  0  0  0
  6 36  1  0  0  0  0
  6 19  1  6  0  0  0
  7  8  1  1  0  0  0
  7 14  1  0  0  0  0
  9 16  1  0  0  0  0
 10 11  1  1  0  0  0
 10 18  1  0  0  0  0
 12 13  1  6  0  0  0
 12 20  1  0  0  0  0
 14 15  1  6  0  0  0
 14 22  1  0  0  0  0
 16 17  1  6  0  0  0
 16 24  1  0  0  0  0
 18 19  1  1  0  0  0
 18 25  1  0  0  0  0
 20 21  1  6  0  0  0
 20 27  1  0  0  0  0
 22 23  1  6  0  0  0
 22 29  1  0  0  0  0
 24  2  1  1  0  0  0
 24 31  1  0  0  0  0
 25 26  1  0  0  0  0
 25 33  1  6  0  0  0
 27 28  1  6  0  0  0
 27 35  1  0  0  0  0
 29 30  1  0  0  0  0
 29 37  1  6  0  0  0
 31 32  1  6  0  0  0
 31 39  1  0  0  0  0
 33 34  1  0  0  0  0
 35 36  1  0  0  0  0
 35 41  1  6  0  0  0
 37 38  1  0  0  0  0
 39 40  1  1  0  0  0
 41 42  1  0  0  0  0
M  END
>  <CHROM.1>
174.53765138,169.16412949,179.71858904,166.84184920,-163.13959419,-60.06647298
-177.70093384,144.35554190,175.43077446,37.04722853,38.21409461,-13.14265160
-2.84130083,1.23415982,2.44836917

>  <Name>
3c44_lig

>  <RI>
224

>  <Rbt.Current_Directory>
/home/itssahil/PROJECTS/Mol_Feturizer/New_Systems/rnas/3c44

>  <Rbt.Executable>
rbdock ($Id: //depot/dev/client3/rdock/2013.1/src/exe/rbdock.cxx#4 $)

>  <Rbt.Library>
libRbt.so (2013.1, Build901 2013/11/27)

>  <Rbt.Parameter_File>
/export/apps/rDock/src/rDock_2013.1_src/data/scripts/dock_solv.prm

>  <Rbt.Receptor>
prm/pocket_docking_8.prm

>  <SCORE>
-14.7332

>  <SCORE.INTER>
-11.2332

>  <SCORE.INTER.CONST>
1

>  <SCORE.INTER.POLAR>
-2.53775

>  <SCORE.INTER.ROT>
9

>  <SCORE.INTER.SOLV>
17.3447

>  <SCORE.INTER.VDW>
-14.4112

>  <SCORE.INTER.norm>
-0.267458

>  <SCORE.INTRA>
-3.49993

>  <SCORE.INTRA.DIHEDRAL>
-6.88283

>  <SCORE.INTRA.DIHEDRAL.0>
14.8538

>  <SCORE.INTRA.POLAR>
0

>  <SCORE.INTRA.POLAR.0>
0

>  <SCORE.INTRA.REPUL>
0

>  <SCORE.INTRA.REPUL.0>
0

>  <SCORE.INTRA.SOLV>
-1.98895

>  <SCORE.INTRA.SOLV.lig_0>
-100.951

>  <SCORE.INTRA.VDW>
0.935956

>  <SCORE.INTRA.VDW.0>
-5.71388

>  <SCORE.INTRA.norm>
-0.0833318

>  <SCORE.RESTR>
0

>  <SCORE.RESTR.CAVITY>
0

>  <SCORE.RESTR.norm>
0

>  <SCORE.SYSTEM>
0

>  <SCORE.SYSTEM.CONST>
0

>  <SCORE.SYSTEM.DIHEDRAL>
0

>  <SCORE.SYSTEM.SOLV>
0

>  <SCORE.SYSTEM.norm>
0

>  <SCORE.heavy>
42

>  <SCORE.norm>
-0.35079

>  <RMSD>
6.117

$$$$
3c44_lig
 OpenBabel11021811463D
libRbt.so/2013.1/901 2013/11/27
 42 45  0  0  0  0  0  0  0  0999 V2000
   36.1244   39.2006  -13.0196 C   0  0  2  0  0  0  0  0  0  0  0  0
   35.6378   39.4228  -11.6871 O   0  0  0  0  0  0  0  0  0  0  0  0
   36.8257   41.3181   -8.1962 C   0  0  2  0  0  0  0  0  0  0  0  0
   37.4476   41.9623   -7.0291 N   0  0  0  0  0  0  0  0  0  0  0  0
   38.0030   42.1452  -12.2420 C   0  0  1  0  0  0  0  0  0  0  0  0
   41.1547   41.8779  -14.9936 C   0  0  1  0  0  0  0  0  0  0  0  0
   34.9467   38.8323  -13.9280 C   0  0  2  0  0  0  0  0  0  0  0  0
   33.8914   39.8533  -13.8576 N   0  0  0  0  0  0  0  0  0  0  0  0
   37.3816   39.9047   -8.3924 C   0  0  0  0  0  0  0  0  0  0  0  0
   38.2098   42.8967  -13.5579 C   0  0  2  0  0  0  0  0  0  0  0  0
   37.8666   42.0547  -14.6602 O   0  0  0  0  0  0  0  0  0  0  0  0
   42.5546   42.4225  -14.6912 C   0  0  2  0  0  0  0  0  0  0  0  0
   42.4091   43.7089  -13.9962 N   0  0  0  0  0  0  0  0  0  0  0  0
   34.3535   37.4735  -13.5472 C   0  0  1  0  0  0  0  0  0  0  0  0
   33.3677   37.1017  -14.5152 O   0  0  0  0  0  0  0  0  0  0  0  0
   36.5833   39.2417   -9.5199 C   0  0  2  0  0  0  0  0  0  0  0  0
   37.1298   37.9013   -9.7798 N   0  0  0  0  0  0  0  0  0  0  0  0
   39.7273   43.0660  -13.5215 C   0  0  2  0  0  0  0  0  0  0  0  0
   40.3877   41.8158  -13.7783 O   0  0  0  0  0  0  0  0  0  0  0  0
   43.3535   42.6441  -15.9822 C   0  0  1  0  0  0  0  0  0  0  0  0
   43.7140   41.3902  -16.5676 O   0  0  0  0  0  0  0  0  0  0  0  0
   35.4587   36.4164  -13.5112 C   0  0  2  0  0  0  0  0  0  0  0  0
   34.9209   35.1746  -13.0488 O   0  0  0  0  0  0  0  0  0  0  0  0
   36.6054   40.0469  -10.8251 C   0  0  2  0  0  0  0  0  0  0  0  0
   39.9276   43.4573  -12.0658 C   0  0  2  0  0  0  0  0  0  0  0  0
   38.8644   42.8318  -11.3150 O   0  0  0  0  0  0  0  0  0  0  0  0
   42.5412   43.4462  -17.0003 C   0  0  2  0  0  0  0  0  0  0  0  0
   42.3691   44.7782  -16.5078 O   0  0  0  0  0  0  0  0  0  0  0  0
   36.5756   36.8752  -12.5724 C   0  0  2  0  0  0  0  0  0  0  0  0
   37.1022   38.1438  -13.0090 O   0  0  0  0  0  0  0  0  0  0  0  0
   36.2892   41.5311  -10.6520 C   0  0  2  0  0  0  0  0  0  0  0  0
   36.6185   42.2320  -11.8624 O   0  0  0  0  0  0  0  0  0  0  0  0
   39.8704   44.9808  -11.9349 C   0  0  0  0  0  0  0  0  0  0  0  0
   40.9008   45.5581  -12.7399 O   0  0  0  0  0  0  0  0  0  0  0  0
   41.1823   42.7693  -17.1975 C   0  0  1  0  0  0  0  0  0  0  0  0
   40.4985   42.7451  -15.9321 O   0  0  0  0  0  0  0  0  0  0  0  0
   37.6765   35.8120  -12.6062 C   0  0  0  0  0  0  0  0  0  0  0  0
   37.3057   34.6745  -11.7521 O   0  0  0  0  0  0  0  0  0  0  0  0
   37.0711   42.1244   -9.4740 C   0  0  1  0  0  0  0  0  0  0  0  0
   36.6939   43.4885   -9.2743 O   0  0  0  0  0  0  0  0  0  0  0  0
   40.3139   43.5015  -18.2213 C   0  0  0  0  0  0  0  0  0  0  0  0
   40.0674   44.8728  -17.7541 N   0  0  0  0  0  0  0  0  0  0  0  0
  1  2  1  1  0  0  0
  1  7  1  0  0  0  0
  1 30  1  0  0  0  0
  3  4  1  1  0  0  0
  3  9  1  0  0  0  0
  3 39  1  0  0  0  0
  5 10  1  0  0  0  0
  5 26  1  0  0  0  0
  5 32  1  1  0  0  0
  6 12  1  0  0  0  0
  6 36  1  0  0  0  0
  6 19  1  1  0  0  0
  7  8  1  1  0  0  0
  7 14  1  0  0  0  0
  9 16  1  0  0  0  0
 10 11  1  6  0  0  0
 10 18  1  0  0  0  0
 12 13  1  6  0  0  0
 12 20  1  0  0  0  0
 14 15  1  6  0  0  0
 14 22  1  0  0  0  0
 16 17  1  6  0  0  0
 16 24  1  0  0  0  0
 18 19  1  1  0  0  0
 18 25  1  0  0  0  0
 20 21  1  6  0  0  0
 20 27  1  0  0  0  0
 22 23  1  1  0  0  0
 22 29  1  0  0  0  0
 24  2  1  6  0  0  0
 24 31  1  0  0  0  0
 25 26  1  0  0  0  0
 25 33  1  6  0  0  0
 27 28  1  1  0  0  0
 27 35  1  0  0  0  0
 29 30  1  0  0  0  0
 29 37  1  6  0  0  0
 31 32  1  6  0  0  0
 31 39  1  0  0  0  0
 33 34  1  0  0  0  0
 35 36  1  0  0  0  0
 35 41  1  6  0  0  0
 37 38  1  0  0  0  0
 39 40  1  1  0  0  0
 41 42  1  0  0  0  0
M  END
>  <CHROM.1>
-167.47711482,178.47424565,87.06591493,116.32019758,-133.25480885,-59.71912065
-79.45499917,-60.37005278,-60.57914973,38.33159857,40.98622988,-13.03316917
3.14143692,0.86861813,0.95467876

>  <Name>
3c44_lig

>  <RI>
0

>  <Rbt.Current_Directory>
/home/itssahil/PROJECTS/Mol_Feturizer/New_Systems/rnas/3c44

>  <Rbt.Executable>
rbdock ($Id: //depot/dev/client3/rdock/2013.1/src/exe/rbdock.cxx#4 $)

>  <Rbt.Library>
libRbt.so (2013.1, Build901 2013/11/27)

>  <Rbt.Parameter_File>
/export/apps/rDock/src/rDock_2013.1_src/data/scripts/dock_solv.prm

>  <Rbt.Receptor>
prm/pocket_docking_5.prm

>  <SCORE>
-14.8209

>  <SCORE.INTER>
-22.1925

>  <SCORE.INTER.CONST>
1

>  <SCORE.INTER.POLAR>
-3.66629

>  <SCORE.INTER.ROT>
9

>  <SCORE.INTER.SOLV>
21.1539

>  <SCORE.INTER.VDW>
-19.2254

>  <SCORE.INTER.norm>
-0.528394

>  <SCORE.INTRA>
6.77727

>  <SCORE.INTRA.DIHEDRAL>
3.48191

>  <SCORE.INTRA.DIHEDRAL.0>
14.8538

>  <SCORE.INTRA.POLAR>
0

>  <SCORE.INTRA.POLAR.0>
0

>  <SCORE.INTRA.REPUL>
0.0118766

>  <SCORE.INTRA.REPUL.0>
0

>  <SCORE.INTRA.SOLV>
3.17257

>  <SCORE.INTRA.SOLV.lig_0>
-100.951

>  <SCORE.INTRA.VDW>
3.39064

>  <SCORE.INTRA.VDW.0>
-5.71388

>  <SCORE.INTRA.norm>
0.161363

>  <SCORE.RESTR>
0.594414

>  <SCORE.RESTR.CAVITY>
0.594414

>  <SCORE.RESTR.norm>
0.0141527

>  <SCORE.SYSTEM>
0

>  <SCORE.SYSTEM.CONST>
0

>  <SCORE.SYSTEM.DIHEDRAL>
0

>  <SCORE.SYSTEM.SOLV>
0

>  <SCORE.SYSTEM.norm>
0

>  <SCORE.heavy>
42

>  <SCORE.norm>
-0.352878

>  <RMSD>
6.182

$$$$
3c44_lig
 OpenBabel11021811463D
libRbt.so/2013.1/901 2013/11/27
 42 45  0  0  0  0  0  0  0  0999 V2000
   32.0146   37.6007  -15.7781 C   0  0  2  0  0  0  0  0  0  0  0  0
   32.0865   36.2095  -15.4299 O   0  0  0  0  0  0  0  0  0  0  0  0
   34.8142   34.3770  -12.9018 C   0  0  2  0  0  0  0  0  0  0  0  0
   35.9225   33.7500  -12.1654 N   0  0  0  0  0  0  0  0  0  0  0  0
   35.1121   38.5382  -13.2591 C   0  0  1  0  0  0  0  0  0  0  0  0
   38.2205   40.3021  -11.1218 C   0  0  1  0  0  0  0  0  0  0  0  0
   30.6309   37.8992  -16.3649 C   0  0  2  0  0  0  0  0  0  0  0  0
   29.5679   37.4755  -15.4422 N   0  0  0  0  0  0  0  0  0  0  0  0
   34.5825   33.6646  -14.2376 C   0  0  0  0  0  0  0  0  0  0  0  0
   36.2877   39.0919  -14.0656 C   0  0  2  0  0  0  0  0  0  0  0  0
   37.2500   38.0612  -14.2964 O   0  0  0  0  0  0  0  0  0  0  0  0
   39.4385   40.8681  -11.8593 C   0  0  2  0  0  0  0  0  0  0  0  0
   40.2524   39.7423  -12.3380 N   0  0  0  0  0  0  0  0  0  0  0  0
   30.4337   37.1971  -17.7107 C   0  0  1  0  0  0  0  0  0  0  0  0
   29.1997   37.6297  -18.2915 O   0  0  0  0  0  0  0  0  0  0  0  0
   33.3245   34.2647  -14.8743 C   0  0  2  0  0  0  0  0  0  0  0  0
   33.1037   33.6471  -16.1906 N   0  0  0  0  0  0  0  0  0  0  0  0
   36.8567   40.0775  -13.0470 C   0  0  2  0  0  0  0  0  0  0  0  0
   37.5212   39.3826  -11.9790 O   0  0  0  0  0  0  0  0  0  0  0  0
   40.2940   41.7381  -10.9291 C   0  0  1  0  0  0  0  0  0  0  0  0
   39.6171   42.9610  -10.6269 O   0  0  0  0  0  0  0  0  0  0  0  0
   31.5900   37.5426  -18.6509 C   0  0  2  0  0  0  0  0  0  0  0  0
   31.4600   36.7993  -19.8656 O   0  0  0  0  0  0  0  0  0  0  0  0
   33.4073   35.7863  -15.0490 C   0  0  2  0  0  0  0  0  0  0  0  0
   35.5749   40.7067  -12.5243 C   0  0  2  0  0  0  0  0  0  0  0  0
   34.5411   39.7050  -12.6386 O   0  0  0  0  0  0  0  0  0  0  0  0
   40.5983   41.0082   -9.6198 C   0  0  2  0  0  0  0  0  0  0  0  0
   41.4639   39.9037   -9.8969 O   0  0  0  0  0  0  0  0  0  0  0  0
   32.9187   37.1984  -17.9762 C   0  0  2  0  0  0  0  0  0  0  0  0
   33.0454   37.9158  -16.7326 O   0  0  0  0  0  0  0  0  0  0  0  0
   33.8707   36.5365  -13.8020 C   0  0  2  0  0  0  0  0  0  0  0  0
   34.1892   37.8928  -14.1537 O   0  0  0  0  0  0  0  0  0  0  0  0
   35.2367   41.9436  -13.3594 C   0  0  0  0  0  0  0  0  0  0  0  0
   35.0929   41.5583  -14.7282 O   0  0  0  0  0  0  0  0  0  0  0  0
   39.2843   40.5171   -9.0066 C   0  0  1  0  0  0  0  0  0  0  0  0
   38.6568   39.6171   -9.9369 O   0  0  0  0  0  0  0  0  0  0  0  0
   34.0435   37.6047  -18.9317 C   0  0  0  0  0  0  0  0  0  0  0  0
   35.3505   37.3724  -18.3002 O   0  0  0  0  0  0  0  0  0  0  0  0
   35.0943   35.8567  -13.1762 C   0  0  1  0  0  0  0  0  0  0  0  0
   35.4561   36.5213  -11.9636 O   0  0  0  0  0  0  0  0  0  0  0  0
   39.5010   39.7919   -7.6778 C   0  0  0  0  0  0  0  0  0  0  0  0
   40.4654   40.5472   -6.8661 N   0  0  0  0  0  0  0  0  0  0  0  0
  1  2  1  6  0  0  0
  1  7  1  0  0  0  0
  1 30  1  0  0  0  0
  3  4  1  6  0  0  0
  3  9  1  0  0  0  0
  3 39  1  0  0  0  0
  5 10  1  0  0  0  0
  5 26  1  0  0  0  0
  5 32  1  6  0  0  0
  6 12  1  0  0  0  0
  6 36  1  0  0  0  0
  6 19  1  6  0  0  0
  7  8  1  1  0  0  0
  7 14  1  0  0  0  0
  9 16  1  0  0  0  0
 10 11  1  1  0  0  0
 10 18  1  0  0  0  0
 12 13  1  1  0  0  0
 12 20  1  0  0  0  0
 14 15  1  6  0  0  0
 14 22  1  0  0  0  0
 16 17  1  6  0  0  0
 16 24  1  0  0  0  0
 18 19  1  1  0  0  0
 18 25  1  0  0  0  0
 20 21  1  1  0  0  0
 20 27  1  0  0  0  0
 22 23  1  6  0  0  0
 22 29  1  0  0  0  0
 24  2  1  1  0  0  0
 24 31  1  0  0  0  0
 25 26  1  0  0  0  0
 25 33  1  6  0  0  0
 27 28  1  6  0  0  0
 27 35  1  0  0  0  0
 29 30  1  0  0  0  0
 29 37  1  6  0  0  0
 31 32  1  6  0  0  0
 31 39  1  0  0  0  0
 33 34  1  0  0  0  0
 35 36  1  0  0  0  0
 35 41  1  1  0  0  0
 37 38  1  0  0  0  0
 39 40  1  1  0  0  0
 41 42  1  0  0  0  0
M  END
>  <CHROM.1>
171.58644659,126.00803178,-70.80339882,171.76900200,-173.63012783,58.55041624
176.54701740,-156.19686136,43.73449049,35.41592083,38.27664349,-13.77657495
3.01497610,0.80702400,2.81196166

>  <Name>
3c44_lig

>  <RI>
0

>  <Rbt.Current_Directory>
/home/itssahil/PROJECTS/Mol_Feturizer/New_Systems/rnas/3c44

>  <Rbt.Executable>
rbdock ($Id: //depot/dev/client3/rdock/2013.1/src/exe/rbdock.cxx#4 $)

>  <Rbt.Library>
libRbt.so (2013.1, Build901 2013/11/27)

>  <Rbt.Parameter_File>
/export/apps/rDock/src/rDock_2013.1_src/data/scripts/dock_solv.prm

>  <Rbt.Receptor>
prm/pocket_docking_7.prm

>  <SCORE>
-12.0701

>  <SCORE.INTER>
-17.8895

>  <SCORE.INTER.CONST>
1

>  <SCORE.INTER.POLAR>
-2.40788

>  <SCORE.INTER.ROT>
9

>  <SCORE.INTER.SOLV>
22.1239

>  <SCORE.INTER.VDW>
-20.8747

>  <SCORE.INTER.norm>
-0.425941

>  <SCORE.INTRA>
5.81944

>  <SCORE.INTRA.DIHEDRAL>
-2.72072

>  <SCORE.INTRA.DIHEDRAL.0>
14.8538

>  <SCORE.INTRA.POLAR>
0

>  <SCORE.INTRA.POLAR.0>
0

>  <SCORE.INTRA.REPUL>
0.0394323

>  <SCORE.INTRA.REPUL.0>
0

>  <SCORE.INTRA.SOLV>
-3.02818

>  <SCORE.INTRA.SOLV.lig_0>
-100.951

>  <SCORE.INTRA.VDW>
8.49673

>  <SCORE.INTRA.VDW.0>
-5.71388

>  <SCORE.INTRA.norm>
0.138558

>  <SCORE.RESTR>
0

>  <SCORE.RESTR.CAVITY>
0

>  <SCORE.RESTR.norm>
0

>  <SCORE.SYSTEM>
0

>  <SCORE.SYSTEM.CONST>
0

>  <SCORE.SYSTEM.DIHEDRAL>
0

>  <SCORE.SYSTEM.SOLV>
0

>  <SCORE.SYSTEM.norm>
0

>  <SCORE.heavy>
42

>  <SCORE.norm>
-0.287382

>  <RMSD>
6.188

$$$$
3c44_lig
 OpenBabel11021811463D
libRbt.so/2013.1/901 2013/11/27
 42 45  0  0  0  0  0  0  0  0999 V2000
   34.7579   35.1807  -16.7141 C   0  0  2  0  0  0  0  0  0  0  0  0
   35.4872   33.9556  -16.8843 O   0  0  0  0  0  0  0  0  0  0  0  0
   39.2126   33.4136  -18.6214 C   0  0  2  0  0  0  0  0  0  0  0  0
   40.4349   33.2570  -19.4246 N   0  0  0  0  0  0  0  0  0  0  0  0
   36.9777   37.1651  -16.7095 C   0  0  1  0  0  0  0  0  0  0  0  0
   37.8044   39.3156  -13.2042 C   0  0  1  0  0  0  0  0  0  0  0  0
   33.8736   35.0681  -15.4678 C   0  0  2  0  0  0  0  0  0  0  0  0
   34.6724   34.6990  -14.2902 N   0  0  0  0  0  0  0  0  0  0  0  0
   38.1208   32.4563  -19.1080 C   0  0  0  0  0  0  0  0  0  0  0  0
   38.4221   37.5855  -16.4335 C   0  0  2  0  0  0  0  0  0  0  0  0
   39.1066   36.5476  -15.7292 O   0  0  0  0  0  0  0  0  0  0  0  0
   37.6097   38.7171  -11.8072 C   0  0  2  0  0  0  0  0  0  0  0  0
   36.3574   37.9485  -11.8048 N   0  0  0  0  0  0  0  0  0  0  0  0
   32.7643   34.0317  -15.6640 C   0  0  1  0  0  0  0  0  0  0  0  0
   31.8751   34.0755  -14.5439 O   0  0  0  0  0  0  0  0  0  0  0  0
   36.9410   32.5613  -18.1357 C   0  0  2  0  0  0  0  0  0  0  0  0
   35.8456   31.6997  -18.6053 N   0  0  0  0  0  0  0  0  0  0  0  0
   38.1726   38.7487  -15.4757 C   0  0  2  0  0  0  0  0  0  0  0  0
   37.7445   38.2699  -14.1902 O   0  0  0  0  0  0  0  0  0  0  0  0
   37.5183   39.8170  -10.7414 C   0  0  1  0  0  0  0  0  0  0  0  0
   38.7933   40.4364  -10.5526 O   0  0  0  0  0  0  0  0  0  0  0  0
   31.9876   34.3390  -16.9456 C   0  0  2  0  0  0  0  0  0  0  0  0
   31.0255   33.3081  -17.1832 O   0  0  0  0  0  0  0  0  0  0  0  0
   36.4139   33.9936  -17.9837 C   0  0  2  0  0  0  0  0  0  0  0  0
   37.0114   39.4386  -16.1740 C   0  0  2  0  0  0  0  0  0  0  0  0
   36.2839   38.4141  -16.8858 O   0  0  0  0  0  0  0  0  0  0  0  0
   36.5055   40.8901  -11.1444 C   0  0  2  0  0  0  0  0  0  0  0  0
   35.1936   40.3206  -11.1178 O   0  0  0  0  0  0  0  0  0  0  0  0
   32.9577   34.4199  -18.1253 C   0  0  2  0  0  0  0  0  0  0  0  0
   33.9536   35.4328  -17.8814 O   0  0  0  0  0  0  0  0  0  0  0  0
   37.4994   35.0382  -17.7325 C   0  0  2  0  0  0  0  0  0  0  0  0
   36.9419   36.3524  -17.8956 O   0  0  0  0  0  0  0  0  0  0  0  0
   37.5521   40.4983  -17.1364 C   0  0  0  0  0  0  0  0  0  0  0  0
   36.4757   41.3380  -17.5597 O   0  0  0  0  0  0  0  0  0  0  0  0
   36.8431   41.3898  -12.5516 C   0  0  1  0  0  0  0  0  0  0  0  0
   36.7677   40.2766  -13.4596 O   0  0  0  0  0  0  0  0  0  0  0  0
   32.1439   34.7756  -19.3721 C   0  0  0  0  0  0  0  0  0  0  0  0
   33.0408   34.9790  -20.5189 O   0  0  0  0  0  0  0  0  0  0  0  0
   38.6781   34.8462  -18.6942 C   0  0  1  0  0  0  0  0  0  0  0  0
   39.7189   35.7754  -18.3837 O   0  0  0  0  0  0  0  0  0  0  0  0
   35.8852   42.4849  -13.0224 C   0  0  0  0  0  0  0  0  0  0  0  0
   36.2652   42.9107  -14.3766 N   0  0  0  0  0  0  0  0  0  0  0  0
  1  2  1  6  0  0  0
  1  7  1  0  0  0  0
  1 30  1  0  0  0  0
  3  4  1  6  0  0  0
  3  9  1  0  0  0  0
  3 39  1  0  0  0  0
  5 10  1  0  0  0  0
  5 26  1  0  0  0  0
  5 32  1  6  0  0  0
  6 12  1  0  0  0  0
  6 36  1  0  0  0  0
  6 19  1  6  0  0  0
  7  8  1  1  0  0  0
  7 14  1  0  0  0  0
  9 16  1  0  0  0  0
 10 11  1  1  0  0  0
 10 18  1  0  0  0  0
 12 13  1  6  0  0  0
 12 20  1  0  0  0  0
 14 15  1  1  0  0  0
 14 22  1  0  0  0  0
 16 17  1  6  0  0  0
 16 24  1  0  0  0  0
 18 19  1  1  0  0  0
 18 25  1  0  0  0  0
 20 21  1  6  0  0  0
 20 27  1  0  0  0  0
 22 23  1  6  0  0  0
 22 29  1  0  0  0  0
 24  2  1  1  0  0  0
 24 31  1  0  0  0  0
 25 26  1  0  0  0  0
 25 33  1  6  0  0  0
 27 28  1  6  0  0  0
 27 35  1  0  0  0  0
 29 30  1  0  0  0  0
 29 37  1  6  0  0  0
 31 32  1  6  0  0  0
 31 39  1  0  0  0  0
 33 34  1  0  0  0  0
 35 36  1  0  0  0  0
 35 41  1  6  0  0  0
 37 38  1  0  0  0  0
 39 40  1  1  0  0  0
 41 42  1  0  0  0  0
M  END
>  <CHROM.1>
-176.23739986,71.63930767,-169.01742650,166.72674085,-172.07754837,-167.15371357
175.23254386,117.96538260,-179.79147734,36.20743647,36.83314605,-15.91763648
1.78895007,-0.28185621,-2.39939819

>  <Name>
3c44_lig

>  <RI>
0

>  <Rbt.Current_Directory>
/home/itssahil/PROJECTS/Mol_Feturizer/New_Systems/rnas/3c44

>  <Rbt.Executable>
rbdock ($Id: //depot/dev/client3/rdock/2013.1/src/exe/rbdock.cxx#4 $)

>  <Rbt.Library>
libRbt.so (2013.1, Build901 2013/11/27)

>  <Rbt.Parameter_File>
/export/apps/rDock/src/rDock_2013.1_src/data/scripts/dock_solv.prm

>  <Rbt.Receptor>
prm/pocket_docking_6.prm

>  <SCORE>
-11.099

>  <SCORE.INTER>
-9.24678

>  <SCORE.INTER.CONST>
1

>  <SCORE.INTER.POLAR>
-2.19835

>  <SCORE.INTER.ROT>
9

>  <SCORE.INTER.SOLV>
16.8828

>  <SCORE.INTER.VDW>
-14.0643

>  <SCORE.INTER.norm>
-0.220161

>  <SCORE.INTRA>
-1.85219

>  <SCORE.INTRA.DIHEDRAL>
-4.20747

>  <SCORE.INTRA.DIHEDRAL.0>
14.8538

>  <SCORE.INTRA.POLAR>
0

>  <SCORE.INTRA.POLAR.0>
0

>  <SCORE.INTRA.REPUL>
0.00322705

>  <SCORE.INTRA.REPUL.0>
0

>  <SCORE.INTRA.SOLV>
-3.18442

>  <SCORE.INTRA.SOLV.lig_0>
-100.951

>  <SCORE.INTRA.VDW>
1.82762

>  <SCORE.INTRA.VDW.0>
-5.71388

>  <SCORE.INTRA.norm>
-0.0440997

>  <SCORE.RESTR>
0

>  <SCORE.RESTR.CAVITY>
0

>  <SCORE.RESTR.norm>
0

>  <SCORE.SYSTEM>
0

>  <SCORE.SYSTEM.CONST>
0

>  <SCORE.SYSTEM.DIHEDRAL>
0

>  <SCORE.SYSTEM.SOLV>
0

>  <SCORE.SYSTEM.norm>
0

>  <SCORE.heavy>
42

>  <SCORE.norm>
-0.264261

>  <RMSD>
6.206

$$$$
3c44_lig
 OpenBabel11021811463D
libRbt.so/2013.1/901 2013/11/27
 42 45  0  0  0  0  0  0  0  0999 V2000
   37.2493   38.6735  -11.4555 C   0  0  2  0  0  0  0  0  0  0  0  0
   36.0080   37.9678  -11.6065 O   0  0  0  0  0  0  0  0  0  0  0  0
   34.4605   35.0216  -14.0793 C   0  0  2  0  0  0  0  0  0  0  0  0
   34.0177   34.0752  -15.1147 N   0  0  0  0  0  0  0  0  0  0  0  0
   38.5237   36.4141  -13.6585 C   0  0  1  0  0  0  0  0  0  0  0  0
   41.0281   38.4119  -16.3639 C   0  0  1  0  0  0  0  0  0  0  0  0
   37.4863   38.9573   -9.9685 C   0  0  2  0  0  0  0  0  0  0  0  0
   37.4237   37.7170   -9.1818 N   0  0  0  0  0  0  0  0  0  0  0  0
   34.0984   36.4573  -14.4701 C   0  0  0  0  0  0  0  0  0  0  0  0
   39.9947   36.6049  -13.2859 C   0  0  2  0  0  0  0  0  0  0  0  0
   40.1566   37.8121  -12.5388 O   0  0  0  0  0  0  0  0  0  0  0  0
   42.3550   39.0412  -15.9269 C   0  0  2  0  0  0  0  0  0  0  0  0
   42.0576   40.1900  -15.0603 N   0  0  0  0  0  0  0  0  0  0  0  0
   36.4576   39.9493   -9.4201 C   0  0  1  0  0  0  0  0  0  0  0  0
   36.8123   40.3036   -8.0800 O   0  0  0  0  0  0  0  0  0  0  0  0
   34.4452   37.3649  -13.2852 C   0  0  2  0  0  0  0  0  0  0  0  0
   34.1679   38.7634  -13.6462 N   0  0  0  0  0  0  0  0  0  0  0  0
   40.5888   36.8045  -14.6788 C   0  0  2  0  0  0  0  0  0  0  0  0
   40.2385   38.0954  -15.2041 O   0  0  0  0  0  0  0  0  0  0  0  0
   43.1618   39.5291  -17.1373 C   0  0  1  0  0  0  0  0  0  0  0  0
   43.6666   38.4173  -17.8817 O   0  0  0  0  0  0  0  0  0  0  0  0
   36.4328   41.2064  -10.2916 C   0  0  2  0  0  0  0  0  0  0  0  0
   35.3955   42.0821   -9.8423 O   0  0  0  0  0  0  0  0  0  0  0  0
   35.9107   37.2478  -12.8479 C   0  0  2  0  0  0  0  0  0  0  0  0
   39.8509   35.7232  -15.4523 C   0  0  2  0  0  0  0  0  0  0  0  0
   38.5698   35.5498  -14.8089 O   0  0  0  0  0  0  0  0  0  0  0  0
   42.2990   40.3889  -18.0625 C   0  0  2  0  0  0  0  0  0  0  0  0
   41.9761   41.6098  -17.3907 O   0  0  0  0  0  0  0  0  0  0  0  0
   36.1810   40.8145  -11.7484 C   0  0  2  0  0  0  0  0  0  0  0  0
   37.2019   39.9038  -12.2019 O   0  0  0  0  0  0  0  0  0  0  0  0
   36.4003   35.8117  -12.6733 C   0  0  2  0  0  0  0  0  0  0  0  0
   37.8321   35.8087  -12.5523 O   0  0  0  0  0  0  0  0  0  0  0  0
   40.6634   34.4270  -15.4179 C   0  0  0  0  0  0  0  0  0  0  0  0
   40.4935   33.8026  -14.1435 O   0  0  0  0  0  0  0  0  0  0  0  0
   41.0237   39.6178  -18.4128 C   0  0  1  0  0  0  0  0  0  0  0  0
   40.3115   39.3394  -17.1944 O   0  0  0  0  0  0  0  0  0  0  0  0
   36.2128   42.0955  -12.5859 C   0  0  0  0  0  0  0  0  0  0  0  0
   35.9499   41.7818  -13.9978 O   0  0  0  0  0  0  0  0  0  0  0  0
   35.9731   34.9388  -13.8592 C   0  0  1  0  0  0  0  0  0  0  0  0
   36.3633   33.5824  -13.6336 O   0  0  0  0  0  0  0  0  0  0  0  0
   40.1125   40.4041  -19.3562 C   0  0  0  0  0  0  0  0  0  0  0  0
   39.5682   41.5686  -18.6440 N   0  0  0  0  0  0  0  0  0  0  0  0
  1  2  1  1  0  0  0
  1  7  1  0  0  0  0
  1 30  1  0  0  0  0
  3  4  1  6  0  0  0
  3  9  1  0  0  0  0
  3 39  1  0  0  0  0
  5 10  1  0  0  0  0
  5 26  1  0  0  0  0
  5 32  1  1  0  0  0
  6 12  1  0  0  0  0
  6 36  1  0  0  0  0
  6 19  1  1  0  0  0
  7  8  1  1  0  0  0
  7 14  1  0  0  0  0
  9 16  1  0  0  0  0
 10 11  1  1  0  0  0
 10 18  1  0  0  0  0
 12 13  1  1  0  0  0
 12 20  1  0  0  0  0
 14 15  1  1  0  0  0
 14 22  1  0  0  0  0
 16 17  1  6  0  0  0
 16 24  1  0  0  0  0
 18 19  1  6  0  0  0
 18 25  1  0  0  0  0
 20 21  1  6  0  0  0
 20 27  1  0  0  0  0
 22 23  1  1  0  0  0
 22 29  1  0  0  0  0
 24  2  1  1  0  0  0
 24 31  1  0  0  0  0
 25 26  1  0  0  0  0
 25 33  1  1  0  0  0
 27 28  1  1  0  0  0
 27 35  1  0  0  0  0
 29 30  1  0  0  0  0
 29 37  1  6  0  0  0
 31 32  1  6  0  0  0
 31 39  1  0  0  0  0
 33 34  1  0  0  0  0
 35 36  1  0  0  0  0
 35 41  1  6  0  0  0
 37 38  1  0  0  0  0
 39 40  1  1  0  0  0
 41 42  1  0  0  0  0
M  END
>  <CHROM.1>
-159.19995356,168.56486004,-85.63838105,167.00010200,-143.53141265,77.40803390
-178.91805655,-57.11070956,-68.09182489,38.32454751,38.20672584,-13.96972639
-3.02452540,-0.78397640,-2.84926935

>  <Name>
3c44_lig

>  <RI>
0

>  <Rbt.Current_Directory>
/home/itssahil/PROJECTS/Mol_Feturizer/New_Systems/rnas/3c44

>  <Rbt.Executable>
rbdock ($Id: //depot/dev/client3/rdock/2013.1/src/exe/rbdock.cxx#4 $)

>  <Rbt.Library>
libRbt.so (2013.1, Build901 2013/11/27)

>  <Rbt.Parameter_File>
/export/apps/rDock/src/rDock_2013.1_src/data/scripts/dock_solv.prm

>  <Rbt.Receptor>
prm/pocket_docking_6.prm

>  <SCORE>
-16.3084

>  <SCORE.INTER>
-16.4705

>  <SCORE.INTER.CONST>
1

>  <SCORE.INTER.POLAR>
-2.44505

>  <SCORE.INTER.ROT>
9

>  <SCORE.INTER.SOLV>
19.8731

>  <SCORE.INTER.VDW>
-19.0545

>  <SCORE.INTER.norm>
-0.392154

>  <SCORE.INTRA>
0.159539

>  <SCORE.INTRA.DIHEDRAL>
-2.28415

>  <SCORE.INTRA.DIHEDRAL.0>
14.8538

>  <SCORE.INTRA.POLAR>
0

>  <SCORE.INTRA.POLAR.0>
0

>  <SCORE.INTRA.REPUL>
0

>  <SCORE.INTRA.REPUL.0>
0

>  <SCORE.INTRA.SOLV>
-0.101712

>  <SCORE.INTRA.SOLV.lig_0>
-100.951

>  <SCORE.INTRA.VDW>
1.35247

>  <SCORE.INTRA.VDW.0>
-5.71388

>  <SCORE.INTRA.norm>
0.00379854

>  <SCORE.RESTR>
0.00254503

>  <SCORE.RESTR.CAVITY>
0.00254503

>  <SCORE.RESTR.norm>
6.0596e-05

>  <SCORE.SYSTEM>
0

>  <SCORE.SYSTEM.CONST>
0

>  <SCORE.SYSTEM.DIHEDRAL>
0

>  <SCORE.SYSTEM.SOLV>
0

>  <SCORE.SYSTEM.norm>
0

>  <SCORE.heavy>
42

>  <SCORE.norm>
-0.388295

>  <RMSD>
6.206

$$$$
3c44_lig
 OpenBabel11021811463D
libRbt.so/2013.1/901 2013/11/27
 42 45  0  0  0  0  0  0  0  0999 V2000
   34.4168   37.2431  -17.4160 C   0  0  2  0  0  0  0  0  0  0  0  0
   35.1222   37.8356  -16.3146 O   0  0  0  0  0  0  0  0  0  0  0  0
   38.6217   36.6187  -18.1754 C   0  0  2  0  0  0  0  0  0  0  0  0
   39.9648   36.2858  -18.6743 N   0  0  0  0  0  0  0  0  0  0  0  0
   36.7825   36.5331  -14.0240 C   0  0  1  0  0  0  0  0  0  0  0  0
   36.9733   38.9521  -10.7599 C   0  0  1  0  0  0  0  0  0  0  0  0
   33.0415   37.9064  -17.5449 C   0  0  2  0  0  0  0  0  0  0  0  0
   33.1724   39.3664  -17.6566 N   0  0  0  0  0  0  0  0  0  0  0  0
   38.4760   38.1314  -17.9857 C   0  0  0  0  0  0  0  0  0  0  0  0
   36.8514   35.7713  -12.6997 C   0  0  2  0  0  0  0  0  0  0  0  0
   35.5333   35.4443  -12.2554 O   0  0  0  0  0  0  0  0  0  0  0  0
   37.5021   38.4209   -9.4235 C   0  0  2  0  0  0  0  0  0  0  0  0
   36.4149   37.6947   -8.7529 N   0  0  0  0  0  0  0  0  0  0  0  0
   32.1490   37.5750  -16.3463 C   0  0  1  0  0  0  0  0  0  0  0  0
   30.8320   38.0806  -16.5854 O   0  0  0  0  0  0  0  0  0  0  0  0
   37.0162   38.4170  -17.6179 C   0  0  2  0  0  0  0  0  0  0  0  0
   36.8505   39.8567  -17.3672 N   0  0  0  0  0  0  0  0  0  0  0  0
   37.4158   36.8694  -11.8005 C   0  0  2  0  0  0  0  0  0  0  0  0
   36.4193   37.8677  -11.5255 O   0  0  0  0  0  0  0  0  0  0  0  0
   37.9656   39.5679   -8.5160 C   0  0  1  0  0  0  0  0  0  0  0  0
   39.1673   40.1526   -9.0248 O   0  0  0  0  0  0  0  0  0  0  0  0
   32.0866   36.0592  -16.1490 C   0  0  2  0  0  0  0  0  0  0  0  0
   31.3431   35.7591  -14.9649 O   0  0  0  0  0  0  0  0  0  0  0  0
   36.5459   37.6417  -16.3809 C   0  0  2  0  0  0  0  0  0  0  0  0
   38.4827   37.4536  -12.7130 C   0  0  2  0  0  0  0  0  0  0  0  0
   38.0257   37.2578  -14.0688 O   0  0  0  0  0  0  0  0  0  0  0  0
   36.8947   40.6554   -8.4143 C   0  0  2  0  0  0  0  0  0  0  0  0
   35.7696   40.1310   -7.7036 O   0  0  0  0  0  0  0  0  0  0  0  0
   33.5048   35.5007  -16.0220 C   0  0  2  0  0  0  0  0  0  0  0  0
   34.2747   35.8274  -17.1958 O   0  0  0  0  0  0  0  0  0  0  0  0
   36.8822   36.1522  -16.4088 C   0  0  2  0  0  0  0  0  0  0  0  0
   36.6647   35.5908  -15.1041 O   0  0  0  0  0  0  0  0  0  0  0  0
   39.8108   36.7332  -12.4710 C   0  0  0  0  0  0  0  0  0  0  0  0
   40.8336   37.3669  -13.2425 O   0  0  0  0  0  0  0  0  0  0  0  0
   36.4838   41.0829   -9.8258 C   0  0  1  0  0  0  0  0  0  0  0  0
   35.9551   39.9349  -10.5127 O   0  0  0  0  0  0  0  0  0  0  0  0
   33.3938   33.9810  -15.8752 C   0  0  0  0  0  0  0  0  0  0  0  0
   32.9106   33.6380  -14.5299 O   0  0  0  0  0  0  0  0  0  0  0  0
   38.3361   35.9264  -16.8403 C   0  0  1  0  0  0  0  0  0  0  0  0
   38.6030   34.5262  -16.9459 O   0  0  0  0  0  0  0  0  0  0  0  0
   35.4266   42.1877   -9.8113 C   0  0  0  0  0  0  0  0  0  0  0  0
   35.2210   42.6785  -11.1811 N   0  0  0  0  0  0  0  0  0  0  0  0
  1  2  1  1  0  0  0
  1  7  1  0  0  0  0
  1 30  1  0  0  0  0
  3  4  1  1  0  0  0
  3  9  1  0  0  0  0
  3 39  1  0  0  0  0
  5 10  1  0  0  0  0
  5 26  1  0  0  0  0
  5 32  1  6  0  0  0
  6 12  1  0  0  0  0
  6 36  1  0  0  0  0
  6 19  1  6  0  0  0
  7  8  1  1  0  0  0
  7 14  1  0  0  0  0
  9 16  1  0  0  0  0
 10 11  1  1  0  0  0
 10 18  1  0  0  0  0
 12 13  1  1  0  0  0
 12 20  1  0  0  0  0
 14 15  1  6  0  0  0
 14 22  1  0  0  0  0
 16 17  1  1  0  0  0
 16 24  1  0  0  0  0
 18 19  1  6  0  0  0
 18 25  1  0  0  0  0
 20 21  1  6  0  0  0
 20 27  1  0  0  0  0
 22 23  1  1  0  0  0
 22 29  1  0  0  0  0
 24  2  1  6  0  0  0
 24 31  1  0  0  0  0
 25 26  1  0  0  0  0
 25 33  1  6  0  0  0
 27 28  1  6  0  0  0
 27 35  1  0  0  0  0
 29 30  1  0  0  0  0
 29 37  1  6  0  0  0
 31 32  1  1  0  0  0
 31 39  1  0  0  0  0
 33 34  1  0  0  0  0
 35 36  1  0  0  0  0
 35 41  1  1  0  0  0
 37 38  1  0  0  0  0
 39 40  1  6  0  0  0
 41 42  1  0  0  0  0
M  END
>  <CHROM.1>
-159.59743700,-167.11211043,-60.45475169,-175.82024006,65.45584130,-174.81570275
-73.93327315,-26.08768277,172.04260099,36.12895578,37.61138169,-13.95063364
1.83450942,0.06863886,-2.00197667

>  <Name>
3c44_lig

>  <RI>
0

>  <Rbt.Current_Directory>
/home/itssahil/PROJECTS/Mol_Feturizer/New_Systems/rnas/3c44

>  <Rbt.Executable>
rbdock ($Id: //depot/dev/client3/rdock/2013.1/src/exe/rbdock.cxx#4 $)

>  <Rbt.Library>
libRbt.so (2013.1, Build901 2013/11/27)

>  <Rbt.Parameter_File>
/export/apps/rDock/src/rDock_2013.1_src/data/scripts/dock_solv.prm

>  <Rbt.Receptor>
prm/pocket_docking_5.prm

>  <SCORE>
-14.1903

>  <SCORE.INTER>
-16.3921

>  <SCORE.INTER.CONST>
1

>  <SCORE.INTER.POLAR>
-3.31156

>  <SCORE.INTER.ROT>
9

>  <SCORE.INTER.SOLV>
20.7264

>  <SCORE.INTER.VDW>
-16.3984

>  <SCORE.INTER.norm>
-0.390289

>  <SCORE.INTRA>
2.20183

>  <SCORE.INTRA.DIHEDRAL>
-6.18435

>  <SCORE.INTRA.DIHEDRAL.0>
14.8538

>  <SCORE.INTRA.POLAR>
0

>  <SCORE.INTRA.POLAR.0>
0

>  <SCORE.INTRA.REPUL>
0

>  <SCORE.INTRA.REPUL.0>
0

>  <SCORE.INTRA.SOLV>
-3.28357

>  <SCORE.INTRA.SOLV.lig_0>
-100.951

>  <SCORE.INTRA.VDW>
6.93579

>  <SCORE.INTRA.VDW.0>
-5.71388

>  <SCORE.INTRA.norm>
0.0524246

>  <SCORE.RESTR>
0

>  <SCORE.RESTR.CAVITY>
0

>  <SCORE.RESTR.norm>
0

>  <SCORE.SYSTEM>
0

>  <SCORE.SYSTEM.CONST>
0

>  <SCORE.SYSTEM.DIHEDRAL>
0

>  <SCORE.SYSTEM.SOLV>
0

>  <SCORE.SYSTEM.norm>
0

>  <SCORE.heavy>
42

>  <SCORE.norm>
-0.337865

>  <RMSD>
6.234

$$$$
3c44_lig
 OpenBabel11021811463D
libRbt.so/2013.1/901 2013/11/27
 42 45  0  0  0  0  0  0  0  0999 V2000
   37.9334   36.4310  -16.1926 C   0  0  2  0  0  0  0  0  0  0  0  0
   37.7585   35.0135  -16.3403 O   0  0  0  0  0  0  0  0  0  0  0  0
   37.8046   32.1826  -13.3115 C   0  0  2  0  0  0  0  0  0  0  0  0
   38.0343   31.2015  -12.2398 N   0  0  0  0  0  0  0  0  0  0  0  0
   37.4126   36.6729  -12.7137 C   0  0  1  0  0  0  0  0  0  0  0  0
   36.9067   39.6559  -10.0620 C   0  0  1  0  0  0  0  0  0  0  0  0
   37.2304   37.1458  -17.3514 C   0  0  2  0  0  0  0  0  0  0  0  0
   35.8201   36.7404  -17.4388 N   0  0  0  0  0  0  0  0  0  0  0  0
   38.6023   31.8099  -14.5644 C   0  0  0  0  0  0  0  0  0  0  0  0
   37.7899   38.1539  -12.7722 C   0  0  2  0  0  0  0  0  0  0  0  0
   38.8559   38.4226  -11.8594 O   0  0  0  0  0  0  0  0  0  0  0  0
   37.1797   39.2268   -8.6166 C   0  0  2  0  0  0  0  0  0  0  0  0
   35.9478   38.6433   -8.0679 N   0  0  0  0  0  0  0  0  0  0  0  0
   37.9187   36.8515  -18.6866 C   0  0  1  0  0  0  0  0  0  0  0  0
   37.3294   37.6606  -19.7090 O   0  0  0  0  0  0  0  0  0  0  0  0
   38.1968   32.7782  -15.6808 C   0  0  2  0  0  0  0  0  0  0  0  0
   38.9889   32.4901  -16.8860 N   0  0  0  0  0  0  0  0  0  0  0  0
   36.5043   38.7685  -12.2223 C   0  0  2  0  0  0  0  0  0  0  0  0
   36.3918   38.5391  -10.8082 O   0  0  0  0  0  0  0  0  0  0  0  0
   37.5888   40.4257   -7.7509 C   0  0  1  0  0  0  0  0  0  0  0  0
   38.8973   40.8772   -8.1098 O   0  0  0  0  0  0  0  0  0  0  0  0
   39.4118   37.1676  -18.5817 C   0  0  2  0  0  0  0  0  0  0  0  0
   40.0695   36.7882  -19.7936 O   0  0  0  0  0  0  0  0  0  0  0  0
   38.3937   34.2507  -15.2993 C   0  0  2  0  0  0  0  0  0  0  0  0
   35.4638   37.9377  -12.9567 C   0  0  2  0  0  0  0  0  0  0  0  0
   36.0576   36.6439  -13.1992 O   0  0  0  0  0  0  0  0  0  0  0  0
   36.6056   41.5854   -7.9184 C   0  0  2  0  0  0  0  0  0  0  0  0
   35.3463   41.2089   -7.3540 O   0  0  0  0  0  0  0  0  0  0  0  0
   40.0164   36.3996  -17.4054 C   0  0  2  0  0  0  0  0  0  0  0  0
   39.3378   36.7481  -16.1826 O   0  0  0  0  0  0  0  0  0  0  0  0
   37.8207   34.6271  -13.9346 C   0  0  2  0  0  0  0  0  0  0  0  0
   38.3069   35.9252  -13.5561 O   0  0  0  0  0  0  0  0  0  0  0  0
   35.0949   38.6285  -14.2713 C   0  0  0  0  0  0  0  0  0  0  0  0
   34.0148   39.5347  -14.0361 O   0  0  0  0  0  0  0  0  0  0  0  0
   36.4519   41.8963   -9.4095 C   0  0  1  0  0  0  0  0  0  0  0  0
   35.9447   40.7226  -10.0687 O   0  0  0  0  0  0  0  0  0  0  0  0
   41.4952   36.7837  -17.3110 C   0  0  0  0  0  0  0  0  0  0  0  0
   42.2286   36.2555  -18.4704 O   0  0  0  0  0  0  0  0  0  0  0  0
   38.2095   33.5921  -12.8723 C   0  0  1  0  0  0  0  0  0  0  0  0
   37.5903   33.9150  -11.6252 O   0  0  0  0  0  0  0  0  0  0  0  0
   35.4969   43.0637   -9.6620 C   0  0  0  0  0  0  0  0  0  0  0  0
   35.3217   43.2409  -11.1103 N   0  0  0  0  0  0  0  0  0  0  0  0
  1  2  1  6  0  0  0
  1  7  1  0  0  0  0
  1 30  1  0  0  0  0
  3  4  1  1  0  0  0
  3  9  1  0  0  0  0
  3 39  1  0  0  0  0
  5 10  1  0  0  0  0
  5 26  1  0  0  0  0
  5 32  1  6  0  0  0
  6 12  1  0  0  0  0
  6 36  1  0  0  0  0
  6 19  1  6  0  0  0
  7  8  1  6  0  0  0
  7 14  1  0  0  0  0
  9 16  1  0  0  0  0
 10 11  1  1  0  0  0
 10 18  1  0  0  0  0
 12 13  1  1  0  0  0
 12 20  1  0  0  0  0
 14 15  1  6  0  0  0
 14 22  1  0  0  0  0
 16 17  1  6  0  0  0
 16 24  1  0  0  0  0
 18 19  1  1  0  0  0
 18 25  1  0  0  0  0
 20 21  1  6  0  0  0
 20 27  1  0  0  0  0
 22 23  1  6  0  0  0
 22 29  1  0  0  0  0
 24  2  1  6  0  0  0
 24 31  1  0  0  0  0
 25 26  1  0  0  0  0
 25 33  1  6  0  0  0
 27 28  1  6  0  0  0
 27 35  1  0  0  0  0
 29 30  1  0  0  0  0
 29 37  1  1  0  0  0
 31 32  1  1  0  0  0
 31 39  1  0  0  0  0
 33 34  1  0  0  0  0
 35 36  1  0  0  0  0
 35 41  1  1  0  0  0
 37 38  1  0  0  0  0
 39 40  1  1  0  0  0
 41 42  1  0  0  0  0
M  END
>  <CHROM.1>
179.61292796,-160.86188692,-162.50707605,94.61979261,-175.66478043,-88.85838751
-68.15680180,150.52099664,-175.88285328,37.57155199,37.32526794,-13.49766459
0.16516824,1.30583028,-0.78845254

>  <Name>
3c44_lig

>  <RI>
224

>  <Rbt.Current_Directory>
/home/itssahil/PROJECTS/Mol_Feturizer/New_Systems/rnas/3c44

>  <Rbt.Executable>
rbdock ($Id: //depot/dev/client3/rdock/2013.1/src/exe/rbdock.cxx#4 $)

>  <Rbt.Library>
libRbt.so (2013.1, Build901 2013/11/27)

>  <Rbt.Parameter_File>
/export/apps/rDock/src/rDock_2013.1_src/data/scripts/dock_solv.prm

>  <Rbt.Receptor>
prm/pocket_docking_8.prm

>  <SCORE>
-18.7291

>  <SCORE.INTER>
-18.0561

>  <SCORE.INTER.CONST>
1

>  <SCORE.INTER.POLAR>
-2.78933

>  <SCORE.INTER.ROT>
9

>  <SCORE.INTER.SOLV>
24.3043

>  <SCORE.INTER.VDW>
-20.4411

>  <SCORE.INTER.norm>
-0.429907

>  <SCORE.INTRA>
-0.67298

>  <SCORE.INTRA.DIHEDRAL>
-0.895478

>  <SCORE.INTRA.DIHEDRAL.0>
14.8538

>  <SCORE.INTRA.POLAR>
0

>  <SCORE.INTRA.POLAR.0>
0

>  <SCORE.INTRA.REPUL>
0

>  <SCORE.INTRA.REPUL.0>
0

>  <SCORE.INTRA.SOLV>
-4.70248

>  <SCORE.INTRA.SOLV.lig_0>
-100.951

>  <SCORE.INTRA.VDW>
2.126

>  <SCORE.INTRA.VDW.0>
-5.71388

>  <SCORE.INTRA.norm>
-0.0160233

>  <SCORE.RESTR>
0

>  <SCORE.RESTR.CAVITY>
0

>  <SCORE.RESTR.norm>
0

>  <SCORE.SYSTEM>
0

>  <SCORE.SYSTEM.CONST>
0

>  <SCORE.SYSTEM.DIHEDRAL>
0

>  <SCORE.SYSTEM.SOLV>
0

>  <SCORE.SYSTEM.norm>
0

>  <SCORE.heavy>
42

>  <SCORE.norm>
-0.44593

>  <RMSD>
6.272

$$$$
3c44_lig
 OpenBabel11021811463D
libRbt.so/2013.1/901 2013/11/27
 42 45  0  0  0  0  0  0  0  0999 V2000
   39.2762   38.9061  -16.1141 C   0  0  2  0  0  0  0  0  0  0  0  0
   39.2942   38.0475  -17.2648 O   0  0  0  0  0  0  0  0  0  0  0  0
   36.5365   35.4711  -18.9815 C   0  0  2  0  0  0  0  0  0  0  0  0
   35.5473   34.4647  -19.3970 N   0  0  0  0  0  0  0  0  0  0  0  0
   36.4090   37.7800  -15.2889 C   0  0  1  0  0  0  0  0  0  0  0  0
   37.0900   38.3145  -11.4936 C   0  0  1  0  0  0  0  0  0  0  0  0
   40.3099   40.0210  -16.3049 C   0  0  2  0  0  0  0  0  0  0  0  0
   40.0808   40.7374  -17.5680 N   0  0  0  0  0  0  0  0  0  0  0  0
   37.7726   34.7963  -18.3797 C   0  0  0  0  0  0  0  0  0  0  0  0
   35.7983   38.7479  -14.2744 C   0  0  2  0  0  0  0  0  0  0  0  0
   36.7913   39.6692  -13.8196 O   0  0  0  0  0  0  0  0  0  0  0  0
   38.6200   38.3703  -11.4306 C   0  0  2  0  0  0  0  0  0  0  0  0
   39.1221   37.0096  -11.1952 N   0  0  0  0  0  0  0  0  0  0  0  0
   41.7361   39.4651  -16.2973 C   0  0  1  0  0  0  0  0  0  0  0  0
   42.6658   40.5526  -16.3184 O   0  0  0  0  0  0  0  0  0  0  0  0
   38.8171   35.8861  -18.1160 C   0  0  2  0  0  0  0  0  0  0  0  0
   39.9983   35.2839  -17.4797 N   0  0  0  0  0  0  0  0  0  0  0  0
   35.4802   37.7697  -13.1453 C   0  0  2  0  0  0  0  0  0  0  0  0
   36.6821   37.3494  -12.4791 O   0  0  0  0  0  0  0  0  0  0  0  0
   39.0944   39.2784  -10.2885 C   0  0  1  0  0  0  0  0  0  0  0  0
   38.8249   40.6488  -10.5955 O   0  0  0  0  0  0  0  0  0  0  0  0
   41.9595   38.6260  -15.0379 C   0  0  2  0  0  0  0  0  0  0  0  0
   43.2535   38.0194  -15.0880 O   0  0  0  0  0  0  0  0  0  0  0  0
   38.2935   37.0153  -17.2196 C   0  0  2  0  0  0  0  0  0  0  0  0
   34.9058   36.6072  -13.9394 C   0  0  2  0  0  0  0  0  0  0  0  0
   35.5400   36.6334  -15.2365 O   0  0  0  0  0  0  0  0  0  0  0  0
   38.3946   38.9219   -8.9760 C   0  0  2  0  0  0  0  0  0  0  0  0
   38.8383   37.6299   -8.5517 O   0  0  0  0  0  0  0  0  0  0  0  0
   40.8852   37.5411  -14.9483 C   0  0  2  0  0  0  0  0  0  0  0  0
   39.5742   38.1397  -14.9322 O   0  0  0  0  0  0  0  0  0  0  0  0
   36.9336   37.5697  -17.6391 C   0  0  2  0  0  0  0  0  0  0  0  0
   36.4129   38.3988  -16.5873 O   0  0  0  0  0  0  0  0  0  0  0  0
   33.3900   36.7751  -14.0650 C   0  0  0  0  0  0  0  0  0  0  0  0
   32.8660   35.7097  -14.8608 O   0  0  0  0  0  0  0  0  0  0  0  0
   36.8807   38.9192   -9.2038 C   0  0  1  0  0  0  0  0  0  0  0  0
   36.5737   37.9356  -10.2077 O   0  0  0  0  0  0  0  0  0  0  0  0
   41.1202   36.7608  -13.6524 C   0  0  0  0  0  0  0  0  0  0  0  0
   40.1441   35.6676  -13.5377 O   0  0  0  0  0  0  0  0  0  0  0  0
   35.9499   36.4345  -17.9466 C   0  0  1  0  0  0  0  0  0  0  0  0
   34.7144   36.9735  -18.4220 O   0  0  0  0  0  0  0  0  0  0  0  0
   36.1038   38.5910   -7.9282 C   0  0  0  0  0  0  0  0  0  0  0  0
   36.3052   39.6678   -6.9486 N   0  0  0  0  0  0  0  0  0  0  0  0
  1  2  1  6  0  0  0
  1  7  1  0  0  0  0
  1 30  1  0  0  0  0
  3  4  1  1  0  0  0
  3  9  1  0  0  0  0
  3 39  1  0  0  0  0
  5 10  1  0  0  0  0
  5 26  1  0  0  0  0
  5 32  1  6  0  0  0
  6 12  1  0  0  0  0
  6 36  1  0  0  0  0
  6 19  1  6  0  0  0
  7  8  1  6  0  0  0
  7 14  1  0  0  0  0
  9 16  1  0  0  0  0
 10 11  1  1  0  0  0
 10 18  1  0  0  0  0
 12 13  1  1  0  0  0
 12 20  1  0  0  0  0
 14 15  1  1  0  0  0
 14 22  1  0  0  0  0
 16 17  1  1  0  0  0
 16 24  1  0  0  0  0
 18 19  1  6  0  0  0
 18 25  1  0  0  0  0
 20 21  1  6  0  0  0
 20 27  1  0  0  0  0
 22 23  1  6  0  0  0
 22 29  1  0  0  0  0
 24  2  1  6  0  0  0
 24 31  1  0  0  0  0
 25 26  1  0  0  0  0
 25 33  1  6  0  0  0
 27 28  1  6  0  0  0
 27 35  1  0  0  0  0
 29 30  1  0  0  0  0
 29 37  1  1  0  0  0
 31 32  1  1  0  0  0
 31 39  1  0  0  0  0
 33 34  1  0  0  0  0
 35 36  1  0  0  0  0
 35 41  1  1  0  0  0
 37 38  1  0  0  0  0
 39 40  1  6  0  0  0
 41 42  1  0  0  0  0
M  END
>  <CHROM.1>
-176.19143788,-178.43132931,-145.31858388,82.76454003,-155.63935932,177.53970952
-177.85145185,-51.18193145,65.63118267,37.97443640,37.78985318,-14.29719358
-1.52700632,0.30798958,1.33628684

>  <Name>
3c44_lig

>  <RI>
0

>  <Rbt.Current_Directory>
/home/itssahil/PROJECTS/Mol_Feturizer/New_Systems/rnas/3c44

>  <Rbt.Executable>
rbdock ($Id: //depot/dev/client3/rdock/2013.1/src/exe/rbdock.cxx#4 $)

>  <Rbt.Library>
libRbt.so (2013.1, Build901 2013/11/27)

>  <Rbt.Parameter_File>
/export/apps/rDock/src/rDock_2013.1_src/data/scripts/dock_solv.prm

>  <Rbt.Receptor>
prm/pocket_docking_7.prm

>  <SCORE>
-10.08

>  <SCORE.INTER>
-8.38393

>  <SCORE.INTER.CONST>
1

>  <SCORE.INTER.POLAR>
-1.29967

>  <SCORE.INTER.ROT>
9

>  <SCORE.INTER.SOLV>
12.9208

>  <SCORE.INTER.VDW>
-15.164

>  <SCORE.INTER.norm>
-0.199617

>  <SCORE.INTRA>
-1.69605

>  <SCORE.INTRA.DIHEDRAL>
-4.67999

>  <SCORE.INTRA.DIHEDRAL.0>
14.8538

>  <SCORE.INTRA.POLAR>
0

>  <SCORE.INTRA.POLAR.0>
0

>  <SCORE.INTRA.REPUL>
0

>  <SCORE.INTRA.REPUL.0>
0

>  <SCORE.INTRA.SOLV>
-1.0622

>  <SCORE.INTRA.SOLV.lig_0>
-100.951

>  <SCORE.INTRA.VDW>
1.17505

>  <SCORE.INTRA.VDW.0>
-5.71388

>  <SCORE.INTRA.norm>
-0.040382

>  <SCORE.RESTR>
0

>  <SCORE.RESTR.CAVITY>
0

>  <SCORE.RESTR.norm>
0

>  <SCORE.SYSTEM>
0

>  <SCORE.SYSTEM.CONST>
0

>  <SCORE.SYSTEM.DIHEDRAL>
0

>  <SCORE.SYSTEM.SOLV>
0

>  <SCORE.SYSTEM.norm>
0

>  <SCORE.heavy>
42

>  <SCORE.norm>
-0.239999

>  <RMSD>
6.311

$$$$
3c44_lig
 OpenBabel11021811463D
libRbt.so/2013.1/901 2013/11/27
 42 45  0  0  0  0  0  0  0  0999 V2000
   36.5651   36.9140  -15.6253 C   0  0  2  0  0  0  0  0  0  0  0  0
   36.9091   38.2853  -15.8758 O   0  0  0  0  0  0  0  0  0  0  0  0
   39.4690   36.8872  -18.8222 C   0  0  2  0  0  0  0  0  0  0  0  0
   40.4192   36.5979  -19.9073 N   0  0  0  0  0  0  0  0  0  0  0  0
   40.7501   39.4437  -15.8150 C   0  0  1  0  0  0  0  0  0  0  0  0
   42.7419   42.7472  -17.5020 C   0  0  1  0  0  0  0  0  0  0  0  0
   35.1704   36.8549  -14.9934 C   0  0  2  0  0  0  0  0  0  0  0  0
   34.1862   37.5575  -15.8294 N   0  0  0  0  0  0  0  0  0  0  0  0
   38.3564   37.8180  -19.3131 C   0  0  0  0  0  0  0  0  0  0  0  0
   39.9459   40.6844  -16.2061 C   0  0  2  0  0  0  0  0  0  0  0  0
   39.4681   40.5541  -17.5464 O   0  0  0  0  0  0  0  0  0  0  0  0
   43.4844   42.6446  -18.8384 C   0  0  2  0  0  0  0  0  0  0  0  0
   44.2369   41.3826  -18.8525 N   0  0  0  0  0  0  0  0  0  0  0  0
   35.1673   37.4718  -13.5925 C   0  0  1  0  0  0  0  0  0  0  0  0
   33.8912   37.2521  -12.9837 O   0  0  0  0  0  0  0  0  0  0  0  0
   37.3268   37.9493  -18.1858 C   0  0  2  0  0  0  0  0  0  0  0  0
   36.2711   38.8866  -18.5980 N   0  0  0  0  0  0  0  0  0  0  0  0
   41.0584   41.7306  -16.1795 C   0  0  2  0  0  0  0  0  0  0  0  0
   41.9376   41.5710  -17.3050 O   0  0  0  0  0  0  0  0  0  0  0  0
   44.4669   43.8096  -19.0167 C   0  0  1  0  0  0  0  0  0  0  0  0
   43.7576   45.0312  -19.2388 O   0  0  0  0  0  0  0  0  0  0  0  0
   36.2593   36.8253  -12.7382 C   0  0  2  0  0  0  0  0  0  0  0  0
   36.3260   37.4793  -11.4683 O   0  0  0  0  0  0  0  0  0  0  0  0
   37.9386   38.4411  -16.8681 C   0  0  2  0  0  0  0  0  0  0  0  0
   41.7852   41.3299  -14.9055 C   0  0  2  0  0  0  0  0  0  0  0  0
   41.5992   39.9064  -14.7485 O   0  0  0  0  0  0  0  0  0  0  0  0
   45.3544   43.9741  -17.7818 C   0  0  2  0  0  0  0  0  0  0  0  0
   46.2256   42.8437  -17.6850 O   0  0  0  0  0  0  0  0  0  0  0  0
   37.6067   36.9471  -13.4517 C   0  0  2  0  0  0  0  0  0  0  0  0
   37.5411   36.3213  -14.7483 O   0  0  0  0  0  0  0  0  0  0  0  0
   39.2041   37.6966  -16.4476 C   0  0  2  0  0  0  0  0  0  0  0  0
   39.8454   38.4136  -15.3802 O   0  0  0  0  0  0  0  0  0  0  0  0
   41.1950   42.0955  -13.7194 C   0  0  0  0  0  0  0  0  0  0  0  0
   41.4389   43.4927  -13.8969 O   0  0  0  0  0  0  0  0  0  0  0  0
   44.4653   44.0720  -16.5393 C   0  0  1  0  0  0  0  0  0  0  0  0
   43.6959   42.8611  -16.4342 O   0  0  0  0  0  0  0  0  0  0  0  0
   38.6560   36.2463  -12.5849 C   0  0  0  0  0  0  0  0  0  0  0  0
   38.4240   34.7947  -12.5865 O   0  0  0  0  0  0  0  0  0  0  0  0
   40.1687   37.5440  -17.6296 C   0  0  1  0  0  0  0  0  0  0  0  0
   41.3036   36.7685  -17.2377 O   0  0  0  0  0  0  0  0  0  0  0  0
   45.2792   44.2602  -15.2585 C   0  0  0  0  0  0  0  0  0  0  0  0
   46.1827   43.1139  -15.0866 N   0  0  0  0  0  0  0  0  0  0  0  0
  1  2  1  1  0  0  0
  1  7  1  0  0  0  0
  1 30  1  0  0  0  0
  3  4  1  6  0  0  0
  3  9  1  0  0  0  0
  3 39  1  0  0  0  0
  5 10  1  0  0  0  0
  5 26  1  0  0  0  0
  5 32  1  1  0  0  0
  6 12  1  0  0  0  0
  6 36  1  0  0  0  0
  6 19  1  1  0  0  0
  7  8  1  6  0  0  0
  7 14  1  0  0  0  0
  9 16  1  0  0  0  0
 10 11  1  6  0  0  0
 10 18  1  0  0  0  0
 12 13  1  1  0  0  0
 12 20  1  0  0  0  0
 14 15  1  1  0  0  0
 14 22  1  0  0  0  0
 16 17  1  6  0  0  0
 16 24  1  0  0  0  0
 18 19  1  6  0  0  0
 18 25  1  0  0  0  0
 20 21  1  1  0  0  0
 20 27  1  0  0  0  0
 22 23  1  1  0  0  0
 22 29  1  0  0  0  0
 24  2  1  1  0  0  0
 24 31  1  0  0  0  0
 25 26  1  0  0  0  0
 25 33  1  1  0  0  0
 27 28  1  1  0  0  0
 27 35  1  0  0  0  0
 29 30  1  0  0  0  0
 29 37  1  1  0  0  0
 31 32  1  1  0  0  0
 31 39  1  0  0  0  0
 33 34  1  0  0  0  0
 35 36  1  0  0  0  0
 35 41  1  1  0  0  0
 37 38  1  0  0  0  0
 39 40  1  1  0  0  0
 41 42  1  0  0  0  0
M  END
>  <CHROM.1>
-159.09276795,79.59968478,-170.24044424,163.70673251,65.98437242,-64.11127204
68.96567459,-86.78815097,-60.03087954,40.15217984,39.70221625,-16.09233870
3.01037348,0.71111246,1.37537842

>  <Name>
3c44_lig

>  <RI>
0

>  <Rbt.Current_Directory>
/home/itssahil/PROJECTS/Mol_Feturizer/New_Systems/rnas/3c44

>  <Rbt.Executable>
rbdock ($Id: //depot/dev/client3/rdock/2013.1/src/exe/rbdock.cxx#4 $)

>  <Rbt.Library>
libRbt.so (2013.1, Build901 2013/11/27)

>  <Rbt.Parameter_File>
/export/apps/rDock/src/rDock_2013.1_src/data/scripts/dock_solv.prm

>  <Rbt.Receptor>
prm/pocket_docking_7.prm

>  <SCORE>
3.07626

>  <SCORE.INTER>
0.941474

>  <SCORE.INTER.CONST>
1

>  <SCORE.INTER.POLAR>
-0.443874

>  <SCORE.INTER.ROT>
9

>  <SCORE.INTER.SOLV>
11.964

>  <SCORE.INTER.VDW>
-11.4808

>  <SCORE.INTER.norm>
0.022416

>  <SCORE.INTRA>
2.13479

>  <SCORE.INTRA.DIHEDRAL>
-5.61925

>  <SCORE.INTRA.DIHEDRAL.0>
14.8538

>  <SCORE.INTRA.POLAR>
0

>  <SCORE.INTRA.POLAR.0>
0

>  <SCORE.INTRA.REPUL>
0

>  <SCORE.INTRA.REPUL.0>
0

>  <SCORE.INTRA.SOLV>
-0.271338

>  <SCORE.INTRA.SOLV.lig_0>
-100.951

>  <SCORE.INTRA.VDW>
5.08008

>  <SCORE.INTRA.VDW.0>
-5.71388

>  <SCORE.INTRA.norm>
0.0508283

>  <SCORE.RESTR>
0

>  <SCORE.RESTR.CAVITY>
0

>  <SCORE.RESTR.norm>
0

>  <SCORE.SYSTEM>
0

>  <SCORE.SYSTEM.CONST>
0

>  <SCORE.SYSTEM.DIHEDRAL>
0

>  <SCORE.SYSTEM.SOLV>
0

>  <SCORE.SYSTEM.norm>
0

>  <SCORE.heavy>
42

>  <SCORE.norm>
0.0732444

>  <RMSD>
6.326

$$$$
3c44_lig
 OpenBabel11021811463D
libRbt.so/2013.1/901 2013/11/27
 42 45  0  0  0  0  0  0  0  0999 V2000
   36.1421   36.8551  -18.0049 C   0  0  2  0  0  0  0  0  0  0  0  0
   36.1234   36.1998  -16.7274 O   0  0  0  0  0  0  0  0  0  0  0  0
   38.3756   33.3301  -14.7573 C   0  0  2  0  0  0  0  0  0  0  0  0
   39.3316   32.3634  -14.1955 N   0  0  0  0  0  0  0  0  0  0  0  0
   38.1951   37.6698  -13.5529 C   0  0  1  0  0  0  0  0  0  0  0  0
   38.4910   39.7132   -9.9163 C   0  0  1  0  0  0  0  0  0  0  0  0
   35.8386   38.3442  -17.8085 C   0  0  2  0  0  0  0  0  0  0  0  0
   36.7626   38.9432  -16.8346 N   0  0  0  0  0  0  0  0  0  0  0  0
   38.1914   33.0962  -16.2594 C   0  0  0  0  0  0  0  0  0  0  0  0
   38.7753   39.0848  -13.5713 C   0  0  2  0  0  0  0  0  0  0  0  0
   40.1981   39.0306  -13.4511 O   0  0  0  0  0  0  0  0  0  0  0  0
   39.0242   41.1493   -9.9514 C   0  0  2  0  0  0  0  0  0  0  0  0
   40.4690   41.0988  -10.2146 N   0  0  0  0  0  0  0  0  0  0  0  0
   34.4003   38.5610  -17.3315 C   0  0  1  0  0  0  0  0  0  0  0  0
   34.1156   39.9632  -17.3153 O   0  0  0  0  0  0  0  0  0  0  0  0
   37.0751   34.0278  -16.7432 C   0  0  2  0  0  0  0  0  0  0  0  0
   36.9104   33.8758  -18.1967 N   0  0  0  0  0  0  0  0  0  0  0  0
   38.1909   39.6192  -12.2653 C   0  0  2  0  0  0  0  0  0  0  0  0
   38.8525   39.0340  -11.1317 O   0  0  0  0  0  0  0  0  0  0  0  0
   38.7889   41.8602   -8.6123 C   0  0  1  0  0  0  0  0  0  0  0  0
   37.3972   42.1341   -8.4304 O   0  0  0  0  0  0  0  0  0  0  0  0
   33.4277   37.8528  -18.2764 C   0  0  2  0  0  0  0  0  0  0  0  0
   32.0961   37.9648  -17.7674 O   0  0  0  0  0  0  0  0  0  0  0  0
   37.3460   35.5041  -16.4273 C   0  0  2  0  0  0  0  0  0  0  0  0
   36.7708   39.0837  -12.3576 C   0  0  2  0  0  0  0  0  0  0  0  0
   36.8340   37.8620  -13.1249 O   0  0  0  0  0  0  0  0  0  0  0  0
   39.2785   41.0050   -7.4424 C   0  0  2  0  0  0  0  0  0  0  0  0
   40.7049   40.9150   -7.5010 O   0  0  0  0  0  0  0  0  0  0  0  0
   33.8117   36.3770  -18.3943 C   0  0  2  0  0  0  0  0  0  0  0  0
   35.1651   36.2522  -18.8738 O   0  0  0  0  0  0  0  0  0  0  0  0
   37.7721   35.7690  -14.9848 C   0  0  2  0  0  0  0  0  0  0  0  0
   38.2740   37.1110  -14.8758 O   0  0  0  0  0  0  0  0  0  0  0  0
   35.8790   40.1195  -13.0457 C   0  0  0  0  0  0  0  0  0  0  0  0
   34.5340   39.6365  -13.0691 O   0  0  0  0  0  0  0  0  0  0  0  0
   38.6501   39.6128   -7.5463 C   0  0  1  0  0  0  0  0  0  0  0  0
   39.0585   39.0215   -8.7925 O   0  0  0  0  0  0  0  0  0  0  0  0
   32.8436   35.7231  -19.3835 C   0  0  0  0  0  0  0  0  0  0  0  0
   33.1507   36.1595  -20.7532 O   0  0  0  0  0  0  0  0  0  0  0  0
   38.8463   34.7702  -14.5383 C   0  0  1  0  0  0  0  0  0  0  0  0
   39.1655   34.9787  -13.1607 O   0  0  0  0  0  0  0  0  0  0  0  0
   39.0746   38.6988   -6.3962 C   0  0  0  0  0  0  0  0  0  0  0  0
   40.5062   38.3927   -6.5247 N   0  0  0  0  0  0  0  0  0  0  0  0
  1  2  1  1  0  0  0
  1  7  1  0  0  0  0
  1 30  1  0  0  0  0
  3  4  1  6  0  0  0
  3  9  1  0  0  0  0
  3 39  1  0  0  0  0
  5 10  1  0  0  0  0
  5 26  1  0  0  0  0
  5 32  1  6  0  0  0
  6 12  1  0  0  0  0
  6 36  1  0  0  0  0
  6 19  1  6  0  0  0
  7  8  1  1  0  0  0
  7 14  1  0  0  0  0
  9 16  1  0  0  0  0
 10 11  1  1  0  0  0
 10 18  1  0  0  0  0
 12 13  1  1  0  0  0
 12 20  1  0  0  0  0
 14 15  1  6  0  0  0
 14 22  1  0  0  0  0
 16 17  1  6  0  0  0
 16 24  1  0  0  0  0
 18 19  1  1  0  0  0
 18 25  1  0  0  0  0
 20 21  1  1  0  0  0
 20 27  1  0  0  0  0
 22 23  1  1  0  0  0
 22 29  1  0  0  0  0
 24  2  1  1  0  0  0
 24 31  1  0  0  0  0
 25 26  1  0  0  0  0
 25 33  1  6  0  0  0
 27 28  1  6  0  0  0
 27 35  1  0  0  0  0
 29 30  1  0  0  0  0
 29 37  1  6  0  0  0
 31 32  1  6  0  0  0
 31 39  1  0  0  0  0
 33 34  1  0  0  0  0
 35 36  1  0  0  0  0
 35 41  1  1  0  0  0
 37 38  1  0  0  0  0
 39 40  1  1  0  0  0
 41 42  1  0  0  0  0
M  END
>  <CHROM.1>
-123.76246538,179.24411000,-65.84275080,168.95801833,-99.81353238,-177.16885079
72.69477900,155.84337411,-67.88039085,37.23597879,37.84742508,-13.77984112
2.15772212,0.81315354,-2.41170814

>  <Name>
3c44_lig

>  <RI>
224

>  <Rbt.Current_Directory>
/home/itssahil/PROJECTS/Mol_Feturizer/New_Systems/rnas/3c44

>  <Rbt.Executable>
rbdock ($Id: //depot/dev/client3/rdock/2013.1/src/exe/rbdock.cxx#4 $)

>  <Rbt.Library>
libRbt.so (2013.1, Build901 2013/11/27)

>  <Rbt.Parameter_File>
/export/apps/rDock/src/rDock_2013.1_src/data/scripts/dock_solv.prm

>  <Rbt.Receptor>
prm/pocket_docking_8.prm

>  <SCORE>
-11.5017

>  <SCORE.INTER>
-14.5552

>  <SCORE.INTER.CONST>
1

>  <SCORE.INTER.POLAR>
-3.25779

>  <SCORE.INTER.ROT>
9

>  <SCORE.INTER.SOLV>
16.1352

>  <SCORE.INTER.VDW>
-13.8225

>  <SCORE.INTER.norm>
-0.346552

>  <SCORE.INTRA>
3.0535

>  <SCORE.INTRA.DIHEDRAL>
2.08211

>  <SCORE.INTRA.DIHEDRAL.0>
14.8538

>  <SCORE.INTRA.POLAR>
0

>  <SCORE.INTRA.POLAR.0>
0

>  <SCORE.INTRA.REPUL>
0

>  <SCORE.INTRA.REPUL.0>
0

>  <SCORE.INTRA.SOLV>
1.25793

>  <SCORE.INTRA.SOLV.lig_0>
-100.951

>  <SCORE.INTRA.VDW>
1.38348

>  <SCORE.INTRA.VDW.0>
-5.71388

>  <SCORE.INTRA.norm>
0.0727025

>  <SCORE.RESTR>
0

>  <SCORE.RESTR.CAVITY>
0

>  <SCORE.RESTR.norm>
0

>  <SCORE.SYSTEM>
0

>  <SCORE.SYSTEM.CONST>
0

>  <SCORE.SYSTEM.DIHEDRAL>
0

>  <SCORE.SYSTEM.SOLV>
0

>  <SCORE.SYSTEM.norm>
0

>  <SCORE.heavy>
42

>  <SCORE.norm>
-0.273849

>  <RMSD>
6.417

$$$$
3c44_lig
 OpenBabel11021811463D
libRbt.so/2013.1/901 2013/11/27
 42 45  0  0  0  0  0  0  0  0999 V2000
   32.5654   37.5878  -16.0045 C   0  0  2  0  0  0  0  0  0  0  0  0
   32.4901   36.2024  -15.6344 O   0  0  0  0  0  0  0  0  0  0  0  0
   34.8143   34.2289  -12.8250 C   0  0  2  0  0  0  0  0  0  0  0  0
   35.7946   33.5348  -11.9758 N   0  0  0  0  0  0  0  0  0  0  0  0
   34.8370   38.6162  -13.0948 C   0  0  1  0  0  0  0  0  0  0  0  0
   37.2622   39.4903  -10.2013 C   0  0  1  0  0  0  0  0  0  0  0  0
   31.1983   38.0417  -16.5269 C   0  0  2  0  0  0  0  0  0  0  0  0
   30.1419   37.7593  -15.5445 N   0  0  0  0  0  0  0  0  0  0  0  0
   34.6403   33.4958  -14.1582 C   0  0  0  0  0  0  0  0  0  0  0  0
   36.2992   39.0647  -13.0970 C   0  0  2  0  0  0  0  0  0  0  0  0
   37.1154   38.0717  -12.4729 O   0  0  0  0  0  0  0  0  0  0  0  0
   37.0349   39.1228   -8.7312 C   0  0  2  0  0  0  0  0  0  0  0  0
   36.3479   40.2444   -8.0761 N   0  0  0  0  0  0  0  0  0  0  0  0
   30.8499   37.3511  -17.8479 C   0  0  1  0  0  0  0  0  0  0  0  0
   29.6473   37.9203  -18.3743 O   0  0  0  0  0  0  0  0  0  0  0  0
   33.5004   34.1791  -14.9210 C   0  0  2  0  0  0  0  0  0  0  0  0
   33.3437   33.5400  -16.2363 N   0  0  0  0  0  0  0  0  0  0  0  0
   36.1986   40.2736  -12.1689 C   0  0  2  0  0  0  0  0  0  0  0  0
   36.0100   39.8580  -10.8063 O   0  0  0  0  0  0  0  0  0  0  0  0
   38.3661   38.8686   -8.0118 C   0  0  1  0  0  0  0  0  0  0  0  0
   38.9546   37.6476   -8.4677 O   0  0  0  0  0  0  0  0  0  0  0  0
   31.9887   37.5444  -18.8509 C   0  0  2  0  0  0  0  0  0  0  0  0
   31.7088   36.8067  -20.0435 O   0  0  0  0  0  0  0  0  0  0  0  0
   33.7303   35.6817  -15.1250 C   0  0  2  0  0  0  0  0  0  0  0  0
   34.9206   40.9147  -12.6866 C   0  0  2  0  0  0  0  0  0  0  0  0
   34.0996   39.8474  -13.2085 O   0  0  0  0  0  0  0  0  0  0  0  0
   39.3518   40.0117   -8.2595 C   0  0  2  0  0  0  0  0  0  0  0  0
   38.8662   41.1896   -7.6092 O   0  0  0  0  0  0  0  0  0  0  0  0
   33.3005   37.0529  -18.2371 C   0  0  2  0  0  0  0  0  0  0  0  0
   33.5755   37.7658  -17.0150 O   0  0  0  0  0  0  0  0  0  0  0  0
   34.1454   36.4302  -13.8600 C   0  0  2  0  0  0  0  0  0  0  0  0
   34.6105   37.7427  -14.2147 O   0  0  0  0  0  0  0  0  0  0  0  0
   35.2652   41.9282  -13.7799 C   0  0  0  0  0  0  0  0  0  0  0  0
   35.8441   41.2392  -14.8904 O   0  0  0  0  0  0  0  0  0  0  0  0
   39.4744   40.2454   -9.7675 C   0  0  1  0  0  0  0  0  0  0  0  0
   38.1767   40.5952  -10.2804 O   0  0  0  0  0  0  0  0  0  0  0  0
   34.4145   37.3102  -19.2550 C   0  0  0  0  0  0  0  0  0  0  0  0
   34.4676   38.7396  -19.5942 O   0  0  0  0  0  0  0  0  0  0  0  0
   35.2452   35.6701  -13.1092 C   0  0  1  0  0  0  0  0  0  0  0  0
   35.5550   36.3407  -11.8856 O   0  0  0  0  0  0  0  0  0  0  0  0
   40.4623   41.3638  -10.1016 C   0  0  0  0  0  0  0  0  0  0  0  0
   39.9277   42.6430   -9.6144 N   0  0  0  0  0  0  0  0  0  0  0  0
  1  2  1  6  0  0  0
  1  7  1  0  0  0  0
  1 30  1  0  0  0  0
  3  4  1  1  0  0  0
  3  9  1  0  0  0  0
  3 39  1  0  0  0  0
  5 10  1  0  0  0  0
  5 26  1  0  0  0  0
  5 32  1  6  0  0  0
  6 12  1  0  0  0  0
  6 36  1  0  0  0  0
  6 19  1  1  0  0  0
  7  8  1  1  0  0  0
  7 14  1  0  0  0  0
  9 16  1  0  0  0  0
 10 11  1  1  0  0  0
 10 18  1  0  0  0  0
 12 13  1  1  0  0  0
 12 20  1  0  0  0  0
 14 15  1  6  0  0  0
 14 22  1  0  0  0  0
 16 17  1  6  0  0  0
 16 24  1  0  0  0  0
 18 19  1  1  0  0  0
 18 25  1  0  0  0  0
 20 21  1  6  0  0  0
 20 27  1  0  0  0  0
 22 23  1  6  0  0  0
 22 29  1  0  0  0  0
 24  2  1  1  0  0  0
 24 31  1  0  0  0  0
 25 26  1  0  0  0  0
 25 33  1  6  0  0  0
 27 28  1  1  0  0  0
 27 35  1  0  0  0  0
 29 30  1  0  0  0  0
 29 37  1  6  0  0  0
 31 32  1  6  0  0  0
 31 39  1  0  0  0  0
 33 34  1  0  0  0  0
 35 36  1  0  0  0  0
 35 41  1  1  0  0  0
 37 38  1  0  0  0  0
 39 40  1  1  0  0  0
 41 42  1  0  0  0  0
M  END
>  <CHROM.1>
-179.81267522,120.93019355,177.09308788,81.31125256,-174.44693963,64.17582875
57.70439581,170.95305906,-66.57416873,35.15713640,38.17378333,-13.51349508
3.09712276,0.97159634,2.81315575

>  <Name>
3c44_lig

>  <RI>
0

>  <Rbt.Current_Directory>
/home/itssahil/PROJECTS/Mol_Feturizer/New_Systems/rnas/3c44

>  <Rbt.Executable>
rbdock ($Id: //depot/dev/client3/rdock/2013.1/src/exe/rbdock.cxx#4 $)

>  <Rbt.Library>
libRbt.so (2013.1, Build901 2013/11/27)

>  <Rbt.Parameter_File>
/export/apps/rDock/src/rDock_2013.1_src/data/scripts/dock_solv.prm

>  <Rbt.Receptor>
prm/pocket_docking_6.prm

>  <SCORE>
-16.9795

>  <SCORE.INTER>
-18.8463

>  <SCORE.INTER.CONST>
1

>  <SCORE.INTER.POLAR>
-2.50972

>  <SCORE.INTER.ROT>
9

>  <SCORE.INTER.SOLV>
22.9938

>  <SCORE.INTER.VDW>
-21.4631

>  <SCORE.INTER.norm>
-0.448722

>  <SCORE.INTRA>
1.86682

>  <SCORE.INTRA.DIHEDRAL>
-4.6915

>  <SCORE.INTRA.DIHEDRAL.0>
14.8538

>  <SCORE.INTRA.POLAR>
0

>  <SCORE.INTRA.POLAR.0>
0

>  <SCORE.INTRA.REPUL>
0

>  <SCORE.INTRA.REPUL.0>
0

>  <SCORE.INTRA.SOLV>
-1.85668

>  <SCORE.INTRA.SOLV.lig_0>
-100.951

>  <SCORE.INTRA.VDW>
5.14091

>  <SCORE.INTRA.VDW.0>
-5.71388

>  <SCORE.INTRA.norm>
0.044448

>  <SCORE.RESTR>
0

>  <SCORE.RESTR.CAVITY>
0

>  <SCORE.RESTR.norm>
0

>  <SCORE.SYSTEM>
0

>  <SCORE.SYSTEM.CONST>
0

>  <SCORE.SYSTEM.DIHEDRAL>
0

>  <SCORE.SYSTEM.SOLV>
0

>  <SCORE.SYSTEM.norm>
0

>  <SCORE.heavy>
42

>  <SCORE.norm>
-0.404274

>  <RMSD>
6.469

$$$$
3c44_lig
 OpenBabel11021811463D
libRbt.so/2013.1/901 2013/11/27
 42 45  0  0  0  0  0  0  0  0999 V2000
   32.8158   36.2693  -17.2952 C   0  0  2  0  0  0  0  0  0  0  0  0
   32.7380   36.2410  -15.8617 O   0  0  0  0  0  0  0  0  0  0  0  0
   34.6461   34.1606  -12.8252 C   0  0  2  0  0  0  0  0  0  0  0  0
   35.4895   33.4091  -11.8830 N   0  0  0  0  0  0  0  0  0  0  0  0
   35.0120   38.5545  -13.2295 C   0  0  1  0  0  0  0  0  0  0  0  0
   35.9344   41.1091  -10.1056 C   0  0  1  0  0  0  0  0  0  0  0  0
   32.0842   37.5124  -17.8121 C   0  0  2  0  0  0  0  0  0  0  0  0
   32.6085   38.7305  -17.1777 N   0  0  0  0  0  0  0  0  0  0  0  0
   34.5056   33.4011  -14.1476 C   0  0  0  0  0  0  0  0  0  0  0  0
   36.4439   39.0909  -13.1977 C   0  0  2  0  0  0  0  0  0  0  0  0
   37.2939   38.1732  -12.5071 O   0  0  0  0  0  0  0  0  0  0  0  0
   37.1861   41.9740  -10.2872 C   0  0  2  0  0  0  0  0  0  0  0  0
   38.3669   41.1330  -10.0470 N   0  0  0  0  0  0  0  0  0  0  0  0
   30.5787   37.4213  -17.5510 C   0  0  1  0  0  0  0  0  0  0  0  0
   29.9225   38.5219  -18.1878 O   0  0  0  0  0  0  0  0  0  0  0  0
   33.4963   34.1593  -15.0161 C   0  0  2  0  0  0  0  0  0  0  0  0
   33.3803   33.4924  -16.3218 N   0  0  0  0  0  0  0  0  0  0  0  0
   36.2366   40.3247  -12.3215 C   0  0  2  0  0  0  0  0  0  0  0  0
   36.0223   39.9487  -10.9511 O   0  0  0  0  0  0  0  0  0  0  0  0
   37.2000   43.1434   -9.2942 C   0  0  1  0  0  0  0  0  0  0  0  0
   36.2010   44.1056   -9.6420 O   0  0  0  0  0  0  0  0  0  0  0  0
   30.0332   36.1068  -18.1121 C   0  0  2  0  0  0  0  0  0  0  0  0
   28.6509   35.9753  -17.7699 O   0  0  0  0  0  0  0  0  0  0  0  0
   33.8814   35.6266  -15.2421 C   0  0  2  0  0  0  0  0  0  0  0  0
   34.9430   40.8672  -12.9083 C   0  0  2  0  0  0  0  0  0  0  0  0
   34.2073   39.7334  -13.4168 O   0  0  0  0  0  0  0  0  0  0  0  0
   36.9380   42.6566   -7.8680 C   0  0  2  0  0  0  0  0  0  0  0  0
   38.0512   41.8684   -7.4369 O   0  0  0  0  0  0  0  0  0  0  0  0
   30.8222   34.9341  -17.5278 C   0  0  2  0  0  0  0  0  0  0  0  0
   32.2230   35.0742  -17.8368 O   0  0  0  0  0  0  0  0  0  0  0  0
   34.2679   36.3770  -13.9693 C   0  0  2  0  0  0  0  0  0  0  0  0
   34.8800   37.6282  -14.3219 O   0  0  0  0  0  0  0  0  0  0  0  0
   35.2672   41.8591  -14.0274 C   0  0  0  0  0  0  0  0  0  0  0  0
   35.9408   42.9895  -13.4694 O   0  0  0  0  0  0  0  0  0  0  0  0
   35.6547   41.8218   -7.8548 C   0  0  1  0  0  0  0  0  0  0  0  0
   35.8351   40.6969   -8.7331 O   0  0  0  0  0  0  0  0  0  0  0  0
   30.2744   33.6486  -18.1528 C   0  0  0  0  0  0  0  0  0  0  0  0
   30.5643   33.6248  -19.5937 O   0  0  0  0  0  0  0  0  0  0  0  0
   35.2311   35.5455  -13.1138 C   0  0  1  0  0  0  0  0  0  0  0  0
   35.5090   36.2266  -11.8882 O   0  0  0  0  0  0  0  0  0  0  0  0
   35.3096   41.3128   -6.4547 C   0  0  0  0  0  0  0  0  0  0  0  0
   36.2394   40.2353   -6.0888 N   0  0  0  0  0  0  0  0  0  0  0  0
  1  2  1  1  0  0  0
  1  7  1  0  0  0  0
  1 30  1  0  0  0  0
  3  4  1  1  0  0  0
  3  9  1  0  0  0  0
  3 39  1  0  0  0  0
  5 10  1  0  0  0  0
  5 26  1  0  0  0  0
  5 32  1  6  0  0  0
  6 12  1  0  0  0  0
  6 36  1  0  0  0  0
  6 19  1  6  0  0  0
  7  8  1  1  0  0  0
  7 14  1  0  0  0  0
  9 16  1  0  0  0  0
 10 11  1  1  0  0  0
 10 18  1  0  0  0  0
 12 13  1  1  0  0  0
 12 20  1  0  0  0  0
 14 15  1  6  0  0  0
 14 22  1  0  0  0  0
 16 17  1  6  0  0  0
 16 24  1  0  0  0  0
 18 19  1  1  0  0  0
 18 25  1  0  0  0  0
 20 21  1  6  0  0  0
 20 27  1  0  0  0  0
 22 23  1  1  0  0  0
 22 29  1  0  0  0  0
 24  2  1  1  0  0  0
 24 31  1  0  0  0  0
 25 26  1  0  0  0  0
 25 33  1  6  0  0  0
 27 28  1  6  0  0  0
 27 35  1  0  0  0  0
 29 30  1  0  0  0  0
 29 37  1  6  0  0  0
 31 32  1  6  0  0  0
 31 39  1  0  0  0  0
 33 34  1  0  0  0  0
 35 36  1  0  0  0  0
 35 41  1  1  0  0  0
 37 38  1  0  0  0  0
 39 40  1  1  0  0  0
 41 42  1  0  0  0  0
M  END
>  <CHROM.1>
-148.75877375,130.94228196,-55.11256950,175.34384760,-94.66102121,-64.87142657
65.97178063,166.58159110,-73.16951296,34.34350859,38.24700439,-13.38014967
2.50851359,0.98959046,-3.07545299

>  <Name>
3c44_lig

>  <RI>
0

>  <Rbt.Current_Directory>
/home/itssahil/PROJECTS/Mol_Feturizer/New_Systems/rnas/3c44

>  <Rbt.Executable>
rbdock ($Id: //depot/dev/client3/rdock/2013.1/src/exe/rbdock.cxx#4 $)

>  <Rbt.Library>
libRbt.so (2013.1, Build901 2013/11/27)

>  <Rbt.Parameter_File>
/export/apps/rDock/src/rDock_2013.1_src/data/scripts/dock_solv.prm

>  <Rbt.Receptor>
prm/pocket_docking_6.prm

>  <SCORE>
-12.1327

>  <SCORE.INTER>
-19.2776

>  <SCORE.INTER.CONST>
1

>  <SCORE.INTER.POLAR>
-2.73575

>  <SCORE.INTER.ROT>
9

>  <SCORE.INTER.SOLV>
18.3769

>  <SCORE.INTER.VDW>
-19.4582

>  <SCORE.INTER.norm>
-0.458992

>  <SCORE.INTRA>
6.80174

>  <SCORE.INTRA.DIHEDRAL>
2.20929

>  <SCORE.INTRA.DIHEDRAL.0>
14.8538

>  <SCORE.INTRA.POLAR>
0

>  <SCORE.INTRA.POLAR.0>
0

>  <SCORE.INTRA.REPUL>
0.332056

>  <SCORE.INTRA.REPUL.0>
0

>  <SCORE.INTRA.SOLV>
1.43989

>  <SCORE.INTRA.SOLV.lig_0>
-100.951

>  <SCORE.INTRA.VDW>
3.31687

>  <SCORE.INTRA.VDW.0>
-5.71388

>  <SCORE.INTRA.norm>
0.161946

>  <SCORE.RESTR>
0.34321

>  <SCORE.RESTR.CAVITY>
0.34321

>  <SCORE.RESTR.norm>
0.00817166

>  <SCORE.SYSTEM>
0

>  <SCORE.SYSTEM.CONST>
0

>  <SCORE.SYSTEM.DIHEDRAL>
0

>  <SCORE.SYSTEM.SOLV>
0

>  <SCORE.SYSTEM.norm>
0

>  <SCORE.heavy>
42

>  <SCORE.norm>
-0.288874

>  <RMSD>
6.519

$$$$
3c44_lig
 OpenBabel11021811463D
libRbt.so/2013.1/901 2013/11/27
 42 45  0  0  0  0  0  0  0  0999 V2000
   40.9376   36.0311  -18.2967 C   0  0  2  0  0  0  0  0  0  0  0  0
   40.9113   35.2676  -17.0809 O   0  0  0  0  0  0  0  0  0  0  0  0
   37.9452   35.1380  -14.1869 C   0  0  2  0  0  0  0  0  0  0  0  0
   36.9587   35.2890  -13.1062 N   0  0  0  0  0  0  0  0  0  0  0  0
   38.5819   38.2208  -17.0364 C   0  0  1  0  0  0  0  0  0  0  0  0
   39.1806   42.2240  -16.1703 C   0  0  1  0  0  0  0  0  0  0  0  0
   41.7182   35.2521  -19.3605 C   0  0  2  0  0  0  0  0  0  0  0  0
   41.1629   33.9021  -19.5340 N   0  0  0  0  0  0  0  0  0  0  0  0
   39.3649   35.3572  -13.6561 C   0  0  0  0  0  0  0  0  0  0  0  0
   38.5485   39.1803  -18.2269 C   0  0  2  0  0  0  0  0  0  0  0  0
   39.8445   39.2643  -18.8228 O   0  0  0  0  0  0  0  0  0  0  0  0
   40.5054   42.8067  -15.6671 C   0  0  2  0  0  0  0  0  0  0  0  0
   41.1340   41.8216  -14.7763 N   0  0  0  0  0  0  0  0  0  0  0  0
   43.1998   35.1395  -18.9927 C   0  0  1  0  0  0  0  0  0  0  0  0
   43.9123   34.5477  -20.0833 O   0  0  0  0  0  0  0  0  0  0  0  0
   40.3424   35.0328  -14.7907 C   0  0  2  0  0  0  0  0  0  0  0  0
   41.7173   35.2911  -14.3369 N   0  0  0  0  0  0  0  0  0  0  0  0
   38.2576   40.4887  -17.4944 C   0  0  2  0  0  0  0  0  0  0  0  0
   39.4159   40.9394  -16.7731 O   0  0  0  0  0  0  0  0  0  0  0  0
   40.2770   44.1072  -14.8857 C   0  0  1  0  0  0  0  0  0  0  0  0
   39.8826   45.1588  -15.7708 O   0  0  0  0  0  0  0  0  0  0  0  0
   43.7700   36.5294  -18.7038 C   0  0  2  0  0  0  0  0  0  0  0  0
   45.1224   36.4099  -18.2545 O   0  0  0  0  0  0  0  0  0  0  0  0
   40.0790   35.8493  -16.0621 C   0  0  2  0  0  0  0  0  0  0  0  0
   37.1946   40.0252  -16.5109 C   0  0  2  0  0  0  0  0  0  0  0  0
   37.4633   38.6345  -16.2300 O   0  0  0  0  0  0  0  0  0  0  0  0
   39.1920   43.9265  -13.8228 C   0  0  2  0  0  0  0  0  0  0  0  0
   39.6777   43.0373  -12.8131 O   0  0  0  0  0  0  0  0  0  0  0  0
   42.9279   37.2143  -17.6262 C   0  0  2  0  0  0  0  0  0  0  0  0
   41.5548   37.3090  -18.0538 O   0  0  0  0  0  0  0  0  0  0  0  0
   38.6182   35.8625  -16.5077 C   0  0  2  0  0  0  0  0  0  0  0  0
   38.4370   36.8720  -17.5141 O   0  0  0  0  0  0  0  0  0  0  0  0
   35.8094   40.2021  -17.1366 C   0  0  0  0  0  0  0  0  0  0  0  0
   35.7028   39.3554  -18.2831 O   0  0  0  0  0  0  0  0  0  0  0  0
   37.9378   43.3498  -14.4849 C   0  0  1  0  0  0  0  0  0  0  0  0
   38.2743   42.0773  -15.0654 O   0  0  0  0  0  0  0  0  0  0  0  0
   43.5054   38.6148  -17.4063 C   0  0  0  0  0  0  0  0  0  0  0  0
   43.5007   39.3666  -18.6695 O   0  0  0  0  0  0  0  0  0  0  0  0
   37.6855   36.1327  -15.3211 C   0  0  1  0  0  0  0  0  0  0  0  0
   36.3221   36.0523  -15.7426 O   0  0  0  0  0  0  0  0  0  0  0  0
   36.7935   43.1581  -13.4888 C   0  0  0  0  0  0  0  0  0  0  0  0
   35.6710   42.4918  -14.1639 N   0  0  0  0  0  0  0  0  0  0  0  0
  1  2  1  1  0  0  0
  1  7  1  0  0  0  0
  1 30  1  0  0  0  0
  3  4  1  1  0  0  0
  3  9  1  0  0  0  0
  3 39  1  0  0  0  0
  5 10  1  0  0  0  0
  5 26  1  0  0  0  0
  5 32  1  6  0  0  0
  6 12  1  0  0  0  0
  6 36  1  0  0  0  0
  6 19  1  1  0  0  0
  7  8  1  1  0  0  0
  7 14  1  0  0  0  0
  9 16  1  0  0  0  0
 10 11  1  1  0  0  0
 10 18  1  0  0  0  0
 12 13  1  1  0  0  0
 12 20  1  0  0  0  0
 14 15  1  6  0  0  0
 14 22  1  0  0  0  0
 16 17  1  1  0  0  0
 16 24  1  0  0  0  0
 18 19  1  1  0  0  0
 18 25  1  0  0  0  0
 20 21  1  6  0  0  0
 20 27  1  0  0  0  0
 22 23  1  1  0  0  0
 22 29  1  0  0  0  0
 24  2  1  6  0  0  0
 24 31  1  0  0  0  0
 25 26  1  0  0  0  0
 25 33  1  6  0  0  0
 27 28  1  1  0  0  0
 27 35  1  0  0  0  0
 29 30  1  0  0  0  0
 29 37  1  6  0  0  0
 31 32  1  6  0  0  0
 31 39  1  0  0  0  0
 33 34  1  0  0  0  0
 35 36  1  0  0  0  0
 35 41  1  1  0  0  0
 37 38  1  0  0  0  0
 39 40  1  6  0  0  0
 41 42  1  0  0  0  0
M  END
>  <CHROM.1>
-173.72228653,172.67025435,-168.16063964,175.36846946,-171.49229326,63.67696091
57.66467153,-67.98640689,-174.91301954,39.74805872,38.65512665,-16.47699221
-1.07129414,0.46337687,0.15699029

>  <Name>
3c44_lig

>  <RI>
224

>  <Rbt.Current_Directory>
/home/itssahil/PROJECTS/Mol_Feturizer/New_Systems/rnas/3c44

>  <Rbt.Executable>
rbdock ($Id: //depot/dev/client3/rdock/2013.1/src/exe/rbdock.cxx#4 $)

>  <Rbt.Library>
libRbt.so (2013.1, Build901 2013/11/27)

>  <Rbt.Parameter_File>
/export/apps/rDock/src/rDock_2013.1_src/data/scripts/dock_solv.prm

>  <Rbt.Receptor>
prm/pocket_docking_8.prm

>  <SCORE>
-5.26825

>  <SCORE.INTER>
-1.20797

>  <SCORE.INTER.CONST>
1

>  <SCORE.INTER.POLAR>
0

>  <SCORE.INTER.ROT>
9

>  <SCORE.INTER.SOLV>
11.335

>  <SCORE.INTER.VDW>
-14.1836

>  <SCORE.INTER.norm>
-0.0287612

>  <SCORE.INTRA>
-4.06177

>  <SCORE.INTRA.DIHEDRAL>
-12.3183

>  <SCORE.INTRA.DIHEDRAL.0>
14.8538

>  <SCORE.INTRA.POLAR>
0

>  <SCORE.INTRA.POLAR.0>
0

>  <SCORE.INTRA.REPUL>
0

>  <SCORE.INTRA.REPUL.0>
0

>  <SCORE.INTRA.SOLV>
-2.21063

>  <SCORE.INTRA.SOLV.lig_0>
-100.951

>  <SCORE.INTRA.VDW>
3.2027

>  <SCORE.INTRA.VDW.0>
-5.71388

>  <SCORE.INTRA.norm>
-0.0967087

>  <SCORE.RESTR>
0.00148425

>  <SCORE.RESTR.CAVITY>
0.00148425

>  <SCORE.RESTR.norm>
3.53393e-05

>  <SCORE.SYSTEM>
0

>  <SCORE.SYSTEM.CONST>
0

>  <SCORE.SYSTEM.DIHEDRAL>
0

>  <SCORE.SYSTEM.SOLV>
0

>  <SCORE.SYSTEM.norm>
0

>  <SCORE.heavy>
42

>  <SCORE.norm>
-0.125435

>  <RMSD>
6.529

$$$$
3c44_lig
 OpenBabel11021811463D
libRbt.so/2013.1/901 2013/11/27
 42 45  0  0  0  0  0  0  0  0999 V2000
   36.4837   37.9982  -16.0792 C   0  0  2  0  0  0  0  0  0  0  0  0
   36.2059   36.5896  -16.0650 O   0  0  0  0  0  0  0  0  0  0  0  0
   38.1336   33.5112  -14.0657 C   0  0  2  0  0  0  0  0  0  0  0  0
   38.9829   32.4585  -13.4875 N   0  0  0  0  0  0  0  0  0  0  0  0
   38.1791   37.8886  -12.8344 C   0  0  1  0  0  0  0  0  0  0  0  0
   38.3826   40.1520   -9.2692 C   0  0  1  0  0  0  0  0  0  0  0  0
   35.1624   38.7684  -16.1732 C   0  0  2  0  0  0  0  0  0  0  0  0
   34.2449   38.3680  -15.0967 N   0  0  0  0  0  0  0  0  0  0  0  0
   37.9822   33.3132  -15.5767 C   0  0  0  0  0  0  0  0  0  0  0  0
   38.7983   39.2870  -12.8394 C   0  0  2  0  0  0  0  0  0  0  0  0
   40.2024   39.2002  -12.5887 O   0  0  0  0  0  0  0  0  0  0  0  0
   39.1850   41.4515   -9.3916 C   0  0  2  0  0  0  0  0  0  0  0  0
   40.6018   41.1042   -9.5679 N   0  0  0  0  0  0  0  0  0  0  0  0
   34.4790   38.5388  -17.5235 C   0  0  1  0  0  0  0  0  0  0  0  0
   33.3384   39.3966  -17.6262 O   0  0  0  0  0  0  0  0  0  0  0  0
   36.9675   34.3438  -16.0829 C   0  0  2  0  0  0  0  0  0  0  0  0
   36.8409   34.2251  -17.5433 N   0  0  0  0  0  0  0  0  0  0  0  0
   38.1137   39.8757  -11.6075 C   0  0  2  0  0  0  0  0  0  0  0  0
   38.6534   39.3085  -10.4025 O   0  0  0  0  0  0  0  0  0  0  0  0
   39.0390   42.3134   -8.1307 C   0  0  1  0  0  0  0  0  0  0  0  0
   37.7207   42.8616   -8.0506 O   0  0  0  0  0  0  0  0  0  0  0  0
   35.4559   38.8492  -18.6591 C   0  0  2  0  0  0  0  0  0  0  0  0
   34.8507   38.5287  -19.9145 O   0  0  0  0  0  0  0  0  0  0  0  0
   37.3530   35.7871  -15.7351 C   0  0  2  0  0  0  0  0  0  0  0  0
   36.6931   39.3742  -11.8138 C   0  0  2  0  0  0  0  0  0  0  0  0
   36.7909   38.1285  -12.5376 O   0  0  0  0  0  0  0  0  0  0  0  0
   39.3068   41.4912   -6.8689 C   0  0  2  0  0  0  0  0  0  0  0  0
   40.6899   41.1274   -6.8393 O   0  0  0  0  0  0  0  0  0  0  0  0
   36.7313   38.0250  -18.4769 C   0  0  2  0  0  0  0  0  0  0  0  0
   37.3318   38.3142  -17.1990 O   0  0  0  0  0  0  0  0  0  0  0  0
   37.7500   35.9958  -14.2752 C   0  0  2  0  0  0  0  0  0  0  0  0
   38.3613   37.2879  -14.1285 O   0  0  0  0  0  0  0  0  0  0  0  0
   35.8968   40.4110  -12.6089 C   0  0  0  0  0  0  0  0  0  0  0  0
   34.5786   39.9099  -12.8418 O   0  0  0  0  0  0  0  0  0  0  0  0
   38.4252   40.2398   -6.8937 C   0  0  1  0  0  0  0  0  0  0  0  0
   38.7603   39.4706   -8.0622 O   0  0  0  0  0  0  0  0  0  0  0  0
   37.6940   38.4037  -19.6052 C   0  0  0  0  0  0  0  0  0  0  0  0
   38.9161   37.5912  -19.5198 O   0  0  0  0  0  0  0  0  0  0  0  0
   38.7184   34.9024  -13.8086 C   0  0  1  0  0  0  0  0  0  0  0  0
   39.0064   35.0651  -12.4181 O   0  0  0  0  0  0  0  0  0  0  0  0
   38.6186   39.3707   -5.6505 C   0  0  0  0  0  0  0  0  0  0  0  0
   37.5321   38.3840   -5.5762 N   0  0  0  0  0  0  0  0  0  0  0  0
  1  2  1  6  0  0  0
  1  7  1  0  0  0  0
  1 30  1  0  0  0  0
  3  4  1  6  0  0  0
  3  9  1  0  0  0  0
  3 39  1  0  0  0  0
  5 10  1  0  0  0  0
  5 26  1  0  0  0  0
  5 32  1  6  0  0  0
  6 12  1  0  0  0  0
  6 36  1  0  0  0  0
  6 19  1  6  0  0  0
  7  8  1  1  0  0  0
  7 14  1  0  0  0  0
  9 16  1  0  0  0  0
 10 11  1  1  0  0  0
 10 18  1  0  0  0  0
 12 13  1  1  0  0  0
 12 20  1  0  0  0  0
 14 15  1  6  0  0  0
 14 22  1  0  0  0  0
 16 17  1  6  0  0  0
 16 24  1  0  0  0  0
 18 19  1  1  0  0  0
 18 25  1  0  0  0  0
 20 21  1  1  0  0  0
 20 27  1  0  0  0  0
 22 23  1  6  0  0  0
 22 29  1  0  0  0  0
 24  2  1  1  0  0  0
 24 31  1  0  0  0  0
 25 26  1  0  0  0  0
 25 33  1  6  0  0  0
 27 28  1  6  0  0  0
 27 35  1  0  0  0  0
 29 30  1  0  0  0  0
 29 37  1  6  0  0  0
 31 32  1  6  0  0  0
 31 39  1  0  0  0  0
 33 34  1  0  0  0  0
 35 36  1  0  0  0  0
 35 41  1  1  0  0  0
 37 38  1  0  0  0  0
 39 40  1  1  0  0  0
 41 42  1  0  0  0  0
M  END
>  <CHROM.1>
-169.31646107,-176.50535955,-68.27613598,159.70648122,-167.19288148,177.83105420
-177.19721024,150.43788594,166.30781904,37.55055263,38.29692056,-13.18917468
2.07826853,1.08165675,-2.37863674

>  <Name>
3c44_lig

>  <RI>
0

>  <Rbt.Current_Directory>
/home/itssahil/PROJECTS/Mol_Feturizer/New_Systems/rnas/3c44

>  <Rbt.Executable>
rbdock ($Id: //depot/dev/client3/rdock/2013.1/src/exe/rbdock.cxx#4 $)

>  <Rbt.Library>
libRbt.so (2013.1, Build901 2013/11/27)

>  <Rbt.Parameter_File>
/export/apps/rDock/src/rDock_2013.1_src/data/scripts/dock_solv.prm

>  <Rbt.Receptor>
prm/pocket_docking_7.prm

>  <SCORE>
-20.3849

>  <SCORE.INTER>
-17.108

>  <SCORE.INTER.CONST>
1

>  <SCORE.INTER.POLAR>
-3.64206

>  <SCORE.INTER.ROT>
9

>  <SCORE.INTER.SOLV>
15.5782

>  <SCORE.INTER.VDW>
-14.0578

>  <SCORE.INTER.norm>
-0.407332

>  <SCORE.INTRA>
-3.27691

>  <SCORE.INTRA.DIHEDRAL>
-6.75291

>  <SCORE.INTRA.DIHEDRAL.0>
14.8538

>  <SCORE.INTRA.POLAR>
0

>  <SCORE.INTRA.POLAR.0>
0

>  <SCORE.INTRA.REPUL>
0

>  <SCORE.INTRA.REPUL.0>
0

>  <SCORE.INTRA.SOLV>
-2.24235

>  <SCORE.INTRA.SOLV.lig_0>
-100.951

>  <SCORE.INTRA.VDW>
1.22072

>  <SCORE.INTRA.VDW.0>
-5.71388

>  <SCORE.INTRA.norm>
-0.0780216

>  <SCORE.RESTR>
0

>  <SCORE.RESTR.CAVITY>
0

>  <SCORE.RESTR.norm>
0

>  <SCORE.SYSTEM>
0

>  <SCORE.SYSTEM.CONST>
0

>  <SCORE.SYSTEM.DIHEDRAL>
0

>  <SCORE.SYSTEM.SOLV>
0

>  <SCORE.SYSTEM.norm>
0

>  <SCORE.heavy>
42

>  <SCORE.norm>
-0.485354

>  <RMSD>
6.596

$$$$
3c44_lig
 OpenBabel11021811463D
libRbt.so/2013.1/901 2013/11/27
 42 45  0  0  0  0  0  0  0  0999 V2000
   36.5535   38.6387  -16.6676 C   0  0  2  0  0  0  0  0  0  0  0  0
   37.4306   37.8120  -15.8872 O   0  0  0  0  0  0  0  0  0  0  0  0
   39.6897   34.5863  -17.1838 C   0  0  2  0  0  0  0  0  0  0  0  0
   40.5719   33.5771  -17.7897 N   0  0  0  0  0  0  0  0  0  0  0  0
   39.8252   38.2953  -13.9893 C   0  0  1  0  0  0  0  0  0  0  0  0
   38.4521   39.4243  -10.2876 C   0  0  1  0  0  0  0  0  0  0  0  0
   36.6810   40.0905  -16.1945 C   0  0  2  0  0  0  0  0  0  0  0  0
   38.0825   40.5326  -16.2322 N   0  0  0  0  0  0  0  0  0  0  0  0
   38.7770   35.2109  -18.2431 C   0  0  0  0  0  0  0  0  0  0  0  0
   40.3936   37.4924  -12.8182 C   0  0  2  0  0  0  0  0  0  0  0  0
   39.6148   36.3123  -12.6116 O   0  0  0  0  0  0  0  0  0  0  0  0
   38.5146   38.6751   -8.9524 C   0  0  2  0  0  0  0  0  0  0  0  0
   37.5937   37.5321   -9.0211 N   0  0  0  0  0  0  0  0  0  0  0  0
   36.1410   40.2621  -14.7725 C   0  0  1  0  0  0  0  0  0  0  0  0
   36.1341   41.6527  -14.4357 O   0  0  0  0  0  0  0  0  0  0  0  0
   37.7865   36.1309  -17.5216 C   0  0  2  0  0  0  0  0  0  0  0  0
   36.9305   36.7980  -18.5142 N   0  0  0  0  0  0  0  0  0  0  0  0
   40.1175   38.4704  -11.6780 C   0  0  2  0  0  0  0  0  0  0  0  0
   38.7151   38.5104  -11.3669 O   0  0  0  0  0  0  0  0  0  0  0  0
   38.0935   39.5818   -7.7885 C   0  0  1  0  0  0  0  0  0  0  0  0
   39.0920   40.5757   -7.5435 O   0  0  0  0  0  0  0  0  0  0  0  0
   34.7174   39.7086  -14.6875 C   0  0  2  0  0  0  0  0  0  0  0  0
   34.2579   39.7702  -13.3347 O   0  0  0  0  0  0  0  0  0  0  0  0
   38.4752   37.1997  -16.6637 C   0  0  2  0  0  0  0  0  0  0  0  0
   40.5314   39.7802  -12.3301 C   0  0  2  0  0  0  0  0  0  0  0  0
   40.2934   39.6349  -13.7470 O   0  0  0  0  0  0  0  0  0  0  0  0
   36.7669   40.2814   -8.0889 C   0  0  2  0  0  0  0  0  0  0  0  0
   35.7238   39.3029   -8.1148 O   0  0  0  0  0  0  0  0  0  0  0  0
   34.7026   38.2576  -15.1710 C   0  0  2  0  0  0  0  0  0  0  0  0
   35.1968   38.1788  -16.5225 O   0  0  0  0  0  0  0  0  0  0  0  0
   39.5737   36.6592  -15.7507 C   0  0  2  0  0  0  0  0  0  0  0  0
   40.3354   37.7567  -15.2215 O   0  0  0  0  0  0  0  0  0  0  0  0
   42.0111   40.0462  -12.0456 C   0  0  0  0  0  0  0  0  0  0  0  0
   42.1633   40.4227  -10.6751 O   0  0  0  0  0  0  0  0  0  0  0  0
   36.8718   40.9871   -9.4435 C   0  0  1  0  0  0  0  0  0  0  0  0
   37.1454   39.9979  -10.4515 O   0  0  0  0  0  0  0  0  0  0  0  0
   33.2547   37.7639  -15.1136 C   0  0  0  0  0  0  0  0  0  0  0  0
   32.4143   38.5588  -16.0207 O   0  0  0  0  0  0  0  0  0  0  0  0
   40.4966   35.7001  -16.5119 C   0  0  1  0  0  0  0  0  0  0  0  0
   41.4612   35.1381  -15.6192 O   0  0  0  0  0  0  0  0  0  0  0  0
   35.5873   41.7318   -9.8093 C   0  0  0  0  0  0  0  0  0  0  0  0
   35.4548   42.9178   -8.9517 N   0  0  0  0  0  0  0  0  0  0  0  0
  1  2  1  1  0  0  0
  1  7  1  0  0  0  0
  1 30  1  0  0  0  0
  3  4  1  6  0  0  0
  3  9  1  0  0  0  0
  3 39  1  0  0  0  0
  5 10  1  0  0  0  0
  5 26  1  0  0  0  0
  5 32  1  6  0  0  0
  6 12  1  0  0  0  0
  6 36  1  0  0  0  0
  6 19  1  6  0  0  0
  7  8  1  1  0  0  0
  7 14  1  0  0  0  0
  9 16  1  0  0  0  0
 10 11  1  1  0  0  0
 10 18  1  0  0  0  0
 12 13  1  6  0  0  0
 12 20  1  0  0  0  0
 14 15  1  6  0  0  0
 14 22  1  0  0  0  0
 16 17  1  6  0  0  0
 16 24  1  0  0  0  0
 18 19  1  6  0  0  0
 18 25  1  0  0  0  0
 20 21  1  6  0  0  0
 20 27  1  0  0  0  0
 22 23  1  1  0  0  0
 22 29  1  0  0  0  0
 24  2  1  1  0  0  0
 24 31  1  0  0  0  0
 25 26  1  0  0  0  0
 25 33  1  6  0  0  0
 27 28  1  6  0  0  0
 27 35  1  0  0  0  0
 29 30  1  0  0  0  0
 29 37  1  6  0  0  0
 31 32  1  6  0  0  0
 31 39  1  0  0  0  0
 33 34  1  0  0  0  0
 35 36  1  0  0  0  0
 35 41  1  6  0  0  0
 37 38  1  0  0  0  0
 39 40  1  1  0  0  0
 41 42  1  0  0  0  0
M  END
>  <CHROM.1>
-115.98451009,86.17082592,-90.96963208,179.63146406,-71.20212539,-72.74322690
62.26655877,89.17414157,71.64706065,37.91012653,38.58686163,-13.39956315
1.47993588,0.36293276,-1.99581841

>  <Name>
3c44_lig

>  <RI>
0

>  <Rbt.Current_Directory>
/home/itssahil/PROJECTS/Mol_Feturizer/New_Systems/rnas/3c44

>  <Rbt.Executable>
rbdock ($Id: //depot/dev/client3/rdock/2013.1/src/exe/rbdock.cxx#4 $)

>  <Rbt.Library>
libRbt.so (2013.1, Build901 2013/11/27)

>  <Rbt.Parameter_File>
/export/apps/rDock/src/rDock_2013.1_src/data/scripts/dock_solv.prm

>  <Rbt.Receptor>
prm/pocket_docking_7.prm

>  <SCORE>
-6.01653

>  <SCORE.INTER>
-9.76208

>  <SCORE.INTER.CONST>
1

>  <SCORE.INTER.POLAR>
-2.14872

>  <SCORE.INTER.ROT>
9

>  <SCORE.INTER.SOLV>
17.9275

>  <SCORE.INTER.VDW>
-14.9215

>  <SCORE.INTER.norm>
-0.232431

>  <SCORE.INTRA>
3.74555

>  <SCORE.INTRA.DIHEDRAL>
4.44382

>  <SCORE.INTRA.DIHEDRAL.0>
14.8538

>  <SCORE.INTRA.POLAR>
0

>  <SCORE.INTRA.POLAR.0>
0

>  <SCORE.INTRA.REPUL>
0.00738854

>  <SCORE.INTRA.REPUL.0>
0

>  <SCORE.INTRA.SOLV>
-1.21607

>  <SCORE.INTRA.SOLV.lig_0>
-100.951

>  <SCORE.INTRA.VDW>
2.09474

>  <SCORE.INTRA.VDW.0>
-5.71388

>  <SCORE.INTRA.norm>
0.0891798

>  <SCORE.RESTR>
0

>  <SCORE.RESTR.CAVITY>
0

>  <SCORE.RESTR.norm>
0

>  <SCORE.SYSTEM>
0

>  <SCORE.SYSTEM.CONST>
0

>  <SCORE.SYSTEM.DIHEDRAL>
0

>  <SCORE.SYSTEM.SOLV>
0

>  <SCORE.SYSTEM.norm>
0

>  <SCORE.heavy>
42

>  <SCORE.norm>
-0.143251

>  <RMSD>
6.692

$$$$
3c44_lig
 OpenBabel11021811463D
libRbt.so/2013.1/901 2013/11/27
 42 45  0  0  0  0  0  0  0  0999 V2000
   38.8446   40.0746  -16.6465 C   0  0  2  0  0  0  0  0  0  0  0  0
   37.5901   40.0286  -17.3437 O   0  0  0  0  0  0  0  0  0  0  0  0
   33.8549   38.5683  -16.2923 C   0  0  2  0  0  0  0  0  0  0  0  0
   32.6272   37.8600  -15.8987 N   0  0  0  0  0  0  0  0  0  0  0  0
   36.7701   40.1662  -13.3061 C   0  0  1  0  0  0  0  0  0  0  0  0
   37.2146   40.5316   -9.3979 C   0  0  1  0  0  0  0  0  0  0  0  0
   39.6313   41.3045  -17.1117 C   0  0  2  0  0  0  0  0  0  0  0  0
   38.8326   42.5284  -16.9522 N   0  0  0  0  0  0  0  0  0  0  0  0
   34.4985   37.8972  -17.5091 C   0  0  0  0  0  0  0  0  0  0  0  0
   38.0206   40.2595  -12.4305 C   0  0  2  0  0  0  0  0  0  0  0  0
   38.1334   39.0919  -11.6145 O   0  0  0  0  0  0  0  0  0  0  0  0
   36.1339   40.3411   -8.3285 C   0  0  2  0  0  0  0  0  0  0  0  0
   35.4309   41.6190   -8.1500 N   0  0  0  0  0  0  0  0  0  0  0  0
   40.0562   41.1724  -18.5763 C   0  0  1  0  0  0  0  0  0  0  0  0
   40.9174   42.2629  -18.9173 O   0  0  0  0  0  0  0  0  0  0  0  0
   35.6749   38.7714  -17.9562 C   0  0  2  0  0  0  0  0  0  0  0  0
   36.3577   38.1264  -19.0879 N   0  0  0  0  0  0  0  0  0  0  0  0
   37.6278   41.4417  -11.5467 C   0  0  2  0  0  0  0  0  0  0  0  0
   36.6198   41.0577  -10.5972 O   0  0  0  0  0  0  0  0  0  0  0  0
   36.7499   39.9226   -6.9870 C   0  0  1  0  0  0  0  0  0  0  0  0
   37.2423   38.5821   -7.0604 O   0  0  0  0  0  0  0  0  0  0  0  0
   40.7981   39.8508  -18.7843 C   0  0  2  0  0  0  0  0  0  0  0  0
   41.0962   39.6805  -20.1725 O   0  0  0  0  0  0  0  0  0  0  0  0
   36.6959   39.0212  -16.8392 C   0  0  2  0  0  0  0  0  0  0  0  0
   37.0210   42.3735  -12.5839 C   0  0  2  0  0  0  0  0  0  0  0  0
   36.4707   41.5378  -13.6251 O   0  0  0  0  0  0  0  0  0  0  0  0
   37.9034   40.8493   -6.5990 C   0  0  2  0  0  0  0  0  0  0  0  0
   37.3760   42.1468   -6.3084 O   0  0  0  0  0  0  0  0  0  0  0  0
   39.9258   38.6921  -18.2989 C   0  0  2  0  0  0  0  0  0  0  0  0
   39.5899   38.8710  -16.9088 O   0  0  0  0  0  0  0  0  0  0  0  0
   36.0801   39.4673  -15.5147 C   0  0  2  0  0  0  0  0  0  0  0  0
   37.0727   39.3901  -14.4786 O   0  0  0  0  0  0  0  0  0  0  0  0
   38.1081   43.2973  -13.1374 C   0  0  0  0  0  0  0  0  0  0  0  0
   38.6580   44.0666  -12.0656 O   0  0  0  0  0  0  0  0  0  0  0  0
   38.8954   40.9235   -7.7627 C   0  0  1  0  0  0  0  0  0  0  0  0
   38.2087   41.4481   -8.9128 O   0  0  0  0  0  0  0  0  0  0  0  0
   40.7262   37.4001  -18.4818 C   0  0  0  0  0  0  0  0  0  0  0  0
   39.8930   36.2379  -18.1412 O   0  0  0  0  0  0  0  0  0  0  0  0
   34.8733   38.5946  -15.1498 C   0  0  1  0  0  0  0  0  0  0  0  0
   34.2593   39.0840  -13.9554 O   0  0  0  0  0  0  0  0  0  0  0  0
   40.0944   41.8179   -7.4451 C   0  0  0  0  0  0  0  0  0  0  0  0
   40.9180   41.1742   -6.4122 N   0  0  0  0  0  0  0  0  0  0  0  0
  1  2  1  6  0  0  0
  1  7  1  0  0  0  0
  1 30  1  0  0  0  0
  3  4  1  1  0  0  0
  3  9  1  0  0  0  0
  3 39  1  0  0  0  0
  5 10  1  0  0  0  0
  5 26  1  0  0  0  0
  5 32  1  6  0  0  0
  6 12  1  0  0  0  0
  6 36  1  0  0  0  0
  6 19  1  6  0  0  0
  7  8  1  6  0  0  0
  7 14  1  0  0  0  0
  9 16  1  0  0  0  0
 10 11  1  1  0  0  0
 10 18  1  0  0  0  0
 12 13  1  1  0  0  0
 12 20  1  0  0  0  0
 14 15  1  1  0  0  0
 14 22  1  0  0  0  0
 16 17  1  6  0  0  0
 16 24  1  0  0  0  0
 18 19  1  1  0  0  0
 18 25  1  0  0  0  0
 20 21  1  6  0  0  0
 20 27  1  0  0  0  0
 22 23  1  6  0  0  0
 22 29  1  0  0  0  0
 24  2  1  6  0  0  0
 24 31  1  0  0  0  0
 25 26  1  0  0  0  0
 25 33  1  6  0  0  0
 27 28  1  6  0  0  0
 27 35  1  0  0  0  0
 29 30  1  0  0  0  0
 29 37  1  1  0  0  0
 31 32  1  1  0  0  0
 31 39  1  0  0  0  0
 33 34  1  0  0  0  0
 35 36  1  0  0  0  0
 35 41  1  1  0  0  0
 37 38  1  0  0  0  0
 39 40  1  1  0  0  0
 41 42  1  0  0  0  0
M  END
>  <CHROM.1>
-171.51009964,-167.20382196,171.09331281,87.72958176,-160.41337708,-60.10084890
-175.06076455,161.03572736,68.73434925,37.72587625,40.18437907,-13.64520075
-1.49236904,0.41467899,1.36373319

>  <Name>
3c44_lig

>  <RI>
0

>  <Rbt.Current_Directory>
/home/itssahil/PROJECTS/Mol_Feturizer/New_Systems/rnas/3c44

>  <Rbt.Executable>
rbdock ($Id: //depot/dev/client3/rdock/2013.1/src/exe/rbdock.cxx#4 $)

>  <Rbt.Library>
libRbt.so (2013.1, Build901 2013/11/27)

>  <Rbt.Parameter_File>
/export/apps/rDock/src/rDock_2013.1_src/data/scripts/dock_solv.prm

>  <Rbt.Receptor>
prm/pocket_docking_7.prm

>  <SCORE>
-9.60203

>  <SCORE.INTER>
-6.8067

>  <SCORE.INTER.CONST>
1

>  <SCORE.INTER.POLAR>
-2.53387

>  <SCORE.INTER.ROT>
9

>  <SCORE.INTER.SOLV>
15.5773

>  <SCORE.INTER.VDW>
-10.884

>  <SCORE.INTER.norm>
-0.162064

>  <SCORE.INTRA>
-2.88689

>  <SCORE.INTRA.DIHEDRAL>
-6.27213

>  <SCORE.INTRA.DIHEDRAL.0>
14.8538

>  <SCORE.INTRA.POLAR>
0

>  <SCORE.INTRA.POLAR.0>
0

>  <SCORE.INTRA.REPUL>
0

>  <SCORE.INTRA.REPUL.0>
0

>  <SCORE.INTRA.SOLV>
-3.91315

>  <SCORE.INTRA.SOLV.lig_0>
-100.951

>  <SCORE.INTRA.VDW>
2.20575

>  <SCORE.INTRA.VDW.0>
-5.71388

>  <SCORE.INTRA.norm>
-0.0687354

>  <SCORE.RESTR>
0.0915508

>  <SCORE.RESTR.CAVITY>
0.0915508

>  <SCORE.RESTR.norm>
0.00217978

>  <SCORE.SYSTEM>
0

>  <SCORE.SYSTEM.CONST>
0

>  <SCORE.SYSTEM.DIHEDRAL>
0

>  <SCORE.SYSTEM.SOLV>
0

>  <SCORE.SYSTEM.norm>
0

>  <SCORE.heavy>
42

>  <SCORE.norm>
-0.22862

>  <RMSD>
6.848

$$$$
3c44_lig
 OpenBabel11021811463D
libRbt.so/2013.1/901 2013/11/27
 42 45  0  0  0  0  0  0  0  0999 V2000
   32.5736   37.4498  -16.9960 C   0  0  2  0  0  0  0  0  0  0  0  0
   32.2681   36.4303  -16.0321 O   0  0  0  0  0  0  0  0  0  0  0  0
   34.3042   33.9486  -13.4082 C   0  0  2  0  0  0  0  0  0  0  0  0
   35.1828   33.0667  -12.6245 N   0  0  0  0  0  0  0  0  0  0  0  0
   34.7275   38.3799  -13.3246 C   0  0  1  0  0  0  0  0  0  0  0  0
   36.6787   40.0027   -9.9263 C   0  0  1  0  0  0  0  0  0  0  0  0
   31.2776   38.1582  -17.4037 C   0  0  2  0  0  0  0  0  0  0  0  0
   30.5661   38.6692  -16.2231 N   0  0  0  0  0  0  0  0  0  0  0  0
   34.0474   33.3581  -14.7976 C   0  0  0  0  0  0  0  0  0  0  0  0
   36.2032   38.7574  -13.1867 C   0  0  2  0  0  0  0  0  0  0  0  0
   36.9189   37.7021  -12.5418 O   0  0  0  0  0  0  0  0  0  0  0  0
   37.8666   39.0480   -9.7679 C   0  0  2  0  0  0  0  0  0  0  0  0
   37.3455   37.7127   -9.4445 N   0  0  0  0  0  0  0  0  0  0  0  0
   30.3498   37.2190  -18.1785 C   0  0  1  0  0  0  0  0  0  0  0  0
   29.2318   37.9629  -18.6724 O   0  0  0  0  0  0  0  0  0  0  0  0
   33.0085   34.2422  -15.4955 C   0  0  2  0  0  0  0  0  0  0  0  0
   32.7806   33.7409  -16.8593 N   0  0  0  0  0  0  0  0  0  0  0  0
   36.0786   39.9315  -12.2178 C   0  0  2  0  0  0  0  0  0  0  0  0
   35.7577   39.4712  -10.8949 O   0  0  0  0  0  0  0  0  0  0  0  0
   38.7969   39.5045   -8.6365 C   0  0  1  0  0  0  0  0  0  0  0  0
   39.5011   40.6896   -9.0167 O   0  0  0  0  0  0  0  0  0  0  0  0
   31.1063   36.5938  -19.3520 C   0  0  2  0  0  0  0  0  0  0  0  0
   30.2707   35.6353  -20.0063 O   0  0  0  0  0  0  0  0  0  0  0  0
   33.4287   35.7153  -15.5734 C   0  0  2  0  0  0  0  0  0  0  0  0
   34.8786   40.6535  -12.8102 C   0  0  2  0  0  0  0  0  0  0  0  0
   34.0578   39.6487  -13.4443 O   0  0  0  0  0  0  0  0  0  0  0  0
   38.0079   39.7906   -7.3577 C   0  0  2  0  0  0  0  0  0  0  0  0
   37.4839   38.5592   -6.8527 O   0  0  0  0  0  0  0  0  0  0  0  0
   32.3724   35.9071  -18.8373 C   0  0  2  0  0  0  0  0  0  0  0  0
   33.2067   36.8568  -18.1452 O   0  0  0  0  0  0  0  0  0  0  0  0
   33.9271   36.2961  -14.2516 C   0  0  2  0  0  0  0  0  0  0  0  0
   34.5574   37.5639  -14.4967 O   0  0  0  0  0  0  0  0  0  0  0  0
   35.3588   41.6924  -13.8258 C   0  0  0  0  0  0  0  0  0  0  0  0
   36.0578   42.7314  -13.1367 O   0  0  0  0  0  0  0  0  0  0  0  0
   36.8704   40.7628   -7.6817 C   0  0  1  0  0  0  0  0  0  0  0  0
   36.0137   40.1499   -8.6615 O   0  0  0  0  0  0  0  0  0  0  0  0
   33.1180   35.3403  -20.0481 C   0  0  0  0  0  0  0  0  0  0  0  0
   34.3509   34.6687  -19.6123 O   0  0  0  0  0  0  0  0  0  0  0  0
   34.9165   35.3420  -13.5720 C   0  0  1  0  0  0  0  0  0  0  0  0
   35.3009   35.8627  -12.2976 O   0  0  0  0  0  0  0  0  0  0  0  0
   36.0427   41.1179   -6.4459 C   0  0  0  0  0  0  0  0  0  0  0  0
   36.8953   41.8238   -5.4792 N   0  0  0  0  0  0  0  0  0  0  0  0
  1  2  1  1  0  0  0
  1  7  1  0  0  0  0
  1 30  1  0  0  0  0
  3  4  1  1  0  0  0
  3  9  1  0  0  0  0
  3 39  1  0  0  0  0
  5 10  1  0  0  0  0
  5 26  1  0  0  0  0
  5 32  1  6  0  0  0
  6 12  1  0  0  0  0
  6 36  1  0  0  0  0
  6 19  1  6  0  0  0
  7  8  1  1  0  0  0
  7 14  1  0  0  0  0
  9 16  1  0  0  0  0
 10 11  1  1  0  0  0
 10 18  1  0  0  0  0
 12 13  1  1  0  0  0
 12 20  1  0  0  0  0
 14 15  1  6  0  0  0
 14 22  1  0  0  0  0
 16 17  1  6  0  0  0
 16 24  1  0  0  0  0
 18 19  1  1  0  0  0
 18 25  1  0  0  0  0
 20 21  1  6  0  0  0
 20 27  1  0  0  0  0
 22 23  1  1  0  0  0
 22 29  1  0  0  0  0
 24  2  1  1  0  0  0
 24 31  1  0  0  0  0
 25 26  1  0  0  0  0
 25 33  1  6  0  0  0
 27 28  1  6  0  0  0
 27 35  1  0  0  0  0
 29 30  1  0  0  0  0
 29 37  1  6  0  0  0
 31 32  1  6  0  0  0
 31 39  1  0  0  0  0
 33 34  1  0  0  0  0
 35 36  1  0  0  0  0
 35 41  1  1  0  0  0
 37 38  1  0  0  0  0
 39 40  1  1  0  0  0
 41 42  1  0  0  0  0
M  END
>  <CHROM.1>
-179.30677889,124.73790346,-90.08044049,127.52711155,-138.95332776,-67.73453586
179.85379961,163.24531157,63.50827990,34.61341401,37.82968423,-13.52622629
2.55962819,1.00052428,-2.88507898

>  <Name>
3c44_lig

>  <RI>
224

>  <Rbt.Current_Directory>
/home/itssahil/PROJECTS/Mol_Feturizer/New_Systems/rnas/3c44

>  <Rbt.Executable>
rbdock ($Id: //depot/dev/client3/rdock/2013.1/src/exe/rbdock.cxx#4 $)

>  <Rbt.Library>
libRbt.so (2013.1, Build901 2013/11/27)

>  <Rbt.Parameter_File>
/export/apps/rDock/src/rDock_2013.1_src/data/scripts/dock_solv.prm

>  <Rbt.Receptor>
prm/pocket_docking_8.prm

>  <SCORE>
-17.4866

>  <SCORE.INTER>
-23.598

>  <SCORE.INTER.CONST>
1

>  <SCORE.INTER.POLAR>
-4.02888

>  <SCORE.INTER.ROT>
9

>  <SCORE.INTER.SOLV>
23.2684

>  <SCORE.INTER.VDW>
-19.6586

>  <SCORE.INTER.norm>
-0.561858

>  <SCORE.INTRA>
6.11145

>  <SCORE.INTRA.DIHEDRAL>
9.5081

>  <SCORE.INTRA.DIHEDRAL.0>
14.8538

>  <SCORE.INTRA.POLAR>
0

>  <SCORE.INTRA.POLAR.0>
0

>  <SCORE.INTRA.REPUL>
0.0453815

>  <SCORE.INTRA.REPUL.0>
0

>  <SCORE.INTRA.SOLV>
-0.540839

>  <SCORE.INTRA.SOLV.lig_0>
-100.951

>  <SCORE.INTRA.VDW>
1.40091

>  <SCORE.INTRA.VDW.0>
-5.71388

>  <SCORE.INTRA.norm>
0.145511

>  <SCORE.RESTR>
0

>  <SCORE.RESTR.CAVITY>
0

>  <SCORE.RESTR.norm>
0

>  <SCORE.SYSTEM>
0

>  <SCORE.SYSTEM.CONST>
0

>  <SCORE.SYSTEM.DIHEDRAL>
0

>  <SCORE.SYSTEM.SOLV>
0

>  <SCORE.SYSTEM.norm>
0

>  <SCORE.heavy>
42

>  <SCORE.norm>
-0.416348

>  <RMSD>
6.866

$$$$
3c44_lig
 OpenBabel11021811463D
libRbt.so/2013.1/901 2013/11/27
 42 45  0  0  0  0  0  0  0  0999 V2000
   32.3004   37.3855  -17.3619 C   0  0  2  0  0  0  0  0  0  0  0  0
   31.9959   36.3936  -16.3693 O   0  0  0  0  0  0  0  0  0  0  0  0
   34.0036   33.7229  -13.9146 C   0  0  2  0  0  0  0  0  0  0  0  0
   34.8669   32.7728  -13.1962 N   0  0  0  0  0  0  0  0  0  0  0  0
   34.8428   38.0098  -13.6730 C   0  0  1  0  0  0  0  0  0  0  0  0
   37.0812   39.6649  -10.4783 C   0  0  1  0  0  0  0  0  0  0  0  0
   31.0421   38.2124  -17.6461 C   0  0  2  0  0  0  0  0  0  0  0  0
   30.4973   38.7809  -16.4047 N   0  0  0  0  0  0  0  0  0  0  0  0
   33.6739   33.1995  -15.3155 C   0  0  0  0  0  0  0  0  0  0  0  0
   36.2754   38.5017  -13.8844 C   0  0  2  0  0  0  0  0  0  0  0  0
   37.1974   37.4358  -13.6489 O   0  0  0  0  0  0  0  0  0  0  0  0
   37.3504   38.8501   -9.2090 C   0  0  2  0  0  0  0  0  0  0  0  0
   36.0900   38.2242   -8.7864 N   0  0  0  0  0  0  0  0  0  0  0  0
   29.9617   37.3667  -18.3248 C   0  0  1  0  0  0  0  0  0  0  0  0
   28.8749   38.2131  -18.7120 O   0  0  0  0  0  0  0  0  0  0  0  0
   32.6536   34.1555  -15.9425 C   0  0  2  0  0  0  0  0  0  0  0  0
   32.3577   33.7190  -17.3154 N   0  0  0  0  0  0  0  0  0  0  0  0
   36.3757   39.5025  -12.7350 C   0  0  2  0  0  0  0  0  0  0  0  0
   36.4708   38.8231  -11.4722 O   0  0  0  0  0  0  0  0  0  0  0  0
   37.8638   39.7461   -8.0742 C   0  0  1  0  0  0  0  0  0  0  0  0
   39.1947   40.1896   -8.3515 O   0  0  0  0  0  0  0  0  0  0  0  0
   30.5413   36.6804  -19.5631 C   0  0  2  0  0  0  0  0  0  0  0  0
   29.5620   35.8064  -20.1306 O   0  0  0  0  0  0  0  0  0  0  0  0
   33.1376   35.6105  -15.9791 C   0  0  2  0  0  0  0  0  0  0  0  0
   35.0220   40.1863  -12.8440 C   0  0  2  0  0  0  0  0  0  0  0  0
   34.1048   39.2127  -13.3882 O   0  0  0  0  0  0  0  0  0  0  0  0
   36.9657   40.9708   -7.8918 C   0  0  2  0  0  0  0  0  0  0  0  0
   35.6934   40.5415   -7.3986 O   0  0  0  0  0  0  0  0  0  0  0  0
   31.7821   35.8773  -19.1696 C   0  0  2  0  0  0  0  0  0  0  0  0
   32.7630   36.7425  -18.5643 O   0  0  0  0  0  0  0  0  0  0  0  0
   33.7057   36.1161  -14.6547 C   0  0  2  0  0  0  0  0  0  0  0  0
   34.3845   37.3636  -14.8734 O   0  0  0  0  0  0  0  0  0  0  0  0
   35.1388   41.4049  -13.7620 C   0  0  0  0  0  0  0  0  0  0  0  0
   35.9674   42.3857  -13.1339 O   0  0  0  0  0  0  0  0  0  0  0  0
   36.8058   41.6763   -9.2410 C   0  0  1  0  0  0  0  0  0  0  0  0
   36.2005   40.7561  -10.1664 O   0  0  0  0  0  0  0  0  0  0  0  0
   32.3527   35.2503  -20.4442 C   0  0  0  0  0  0  0  0  0  0  0  0
   33.4989   34.3910  -20.1142 O   0  0  0  0  0  0  0  0  0  0  0  0
   34.6728   35.0933  -14.0469 C   0  0  1  0  0  0  0  0  0  0  0  0
   35.1229   35.5458  -12.7679 O   0  0  0  0  0  0  0  0  0  0  0  0
   35.9347   42.9290   -9.1396 C   0  0  0  0  0  0  0  0  0  0  0  0
   36.7558   44.0523   -8.6668 N   0  0  0  0  0  0  0  0  0  0  0  0
  1  2  1  1  0  0  0
  1  7  1  0  0  0  0
  1 30  1  0  0  0  0
  3  4  1  6  0  0  0
  3  9  1  0  0  0  0
  3 39  1  0  0  0  0
  5 10  1  0  0  0  0
  5 26  1  0  0  0  0
  5 32  1  6  0  0  0
  6 12  1  0  0  0  0
  6 36  1  0  0  0  0
  6 19  1  6  0  0  0
  7  8  1  1  0  0  0
  7 14  1  0  0  0  0
  9 16  1  0  0  0  0
 10 11  1  1  0  0  0
 10 18  1  0  0  0  0
 12 13  1  1  0  0  0
 12 20  1  0  0  0  0
 14 15  1  6  0  0  0
 14 22  1  0  0  0  0
 16 17  1  6  0  0  0
 16 24  1  0  0  0  0
 18 19  1  1  0  0  0
 18 25  1  0  0  0  0
 20 21  1  6  0  0  0
 20 27  1  0  0  0  0
 22 23  1  1  0  0  0
 22 29  1  0  0  0  0
 24  2  1  1  0  0  0
 24 31  1  0  0  0  0
 25 26  1  0  0  0  0
 25 33  1  6  0  0  0
 27 28  1  6  0  0  0
 27 35  1  0  0  0  0
 29 30  1  0  0  0  0
 29 37  1  6  0  0  0
 31 32  1  6  0  0  0
 31 39  1  0  0  0  0
 33 34  1  0  0  0  0
 35 36  1  0  0  0  0
 35 41  1  1  0  0  0
 37 38  1  0  0  0  0
 39 40  1  1  0  0  0
 41 42  1  0  0  0  0
M  END
>  <CHROM.1>
-176.77182264,134.90766927,-171.92741747,157.11355294,-135.55615577,-67.01063894
-176.25017120,173.81283766,82.48560927,34.31295700,37.90738149,-13.98350425
2.46499869,0.94079713,-2.86038626

>  <Name>
3c44_lig

>  <RI>
224

>  <Rbt.Current_Directory>
/home/itssahil/PROJECTS/Mol_Feturizer/New_Systems/rnas/3c44

>  <Rbt.Executable>
rbdock ($Id: //depot/dev/client3/rdock/2013.1/src/exe/rbdock.cxx#4 $)

>  <Rbt.Library>
libRbt.so (2013.1, Build901 2013/11/27)

>  <Rbt.Parameter_File>
/export/apps/rDock/src/rDock_2013.1_src/data/scripts/dock_solv.prm

>  <Rbt.Receptor>
prm/pocket_docking_8.prm

>  <SCORE>
-13.9688

>  <SCORE.INTER>
-17.35

>  <SCORE.INTER.CONST>
1

>  <SCORE.INTER.POLAR>
-2.9957

>  <SCORE.INTER.ROT>
9

>  <SCORE.INTER.SOLV>
26.9675

>  <SCORE.INTER.VDW>
-20.1701

>  <SCORE.INTER.norm>
-0.413095

>  <SCORE.INTRA>
3.3812

>  <SCORE.INTRA.DIHEDRAL>
2.11458

>  <SCORE.INTRA.DIHEDRAL.0>
14.8538

>  <SCORE.INTRA.POLAR>
0

>  <SCORE.INTRA.POLAR.0>
0

>  <SCORE.INTRA.REPUL>
0.344344

>  <SCORE.INTRA.REPUL.0>
0

>  <SCORE.INTRA.SOLV>
-1.80315

>  <SCORE.INTRA.SOLV.lig_0>
-100.951

>  <SCORE.INTRA.VDW>
1.50376

>  <SCORE.INTRA.VDW.0>
-5.71388

>  <SCORE.INTRA.norm>
0.0805049

>  <SCORE.RESTR>
0

>  <SCORE.RESTR.CAVITY>
0

>  <SCORE.RESTR.norm>
0

>  <SCORE.SYSTEM>
0

>  <SCORE.SYSTEM.CONST>
0

>  <SCORE.SYSTEM.DIHEDRAL>
0

>  <SCORE.SYSTEM.SOLV>
0

>  <SCORE.SYSTEM.norm>
0

>  <SCORE.heavy>
42

>  <SCORE.norm>
-0.33259

>  <RMSD>
6.879

$$$$
3c44_lig
 OpenBabel11021811463D
libRbt.so/2013.1/901 2013/11/27
 42 45  0  0  0  0  0  0  0  0999 V2000
   36.6883   39.5967  -12.3313 C   0  0  2  0  0  0  0  0  0  0  0  0
   36.1660   39.4839  -10.9985 O   0  0  0  0  0  0  0  0  0  0  0  0
   37.7030   40.9723   -7.4472 C   0  0  2  0  0  0  0  0  0  0  0  0
   38.4027   41.3529   -6.2105 N   0  0  0  0  0  0  0  0  0  0  0  0
   38.9462   42.5502  -11.4085 C   0  0  1  0  0  0  0  0  0  0  0  0
   40.5246   46.2610  -12.5252 C   0  0  1  0  0  0  0  0  0  0  0  0
   35.5627   39.3250  -13.3349 C   0  0  2  0  0  0  0  0  0  0  0  0
   34.4134   40.2069  -13.0847 N   0  0  0  0  0  0  0  0  0  0  0  0
   37.3527   39.4815   -7.4320 C   0  0  0  0  0  0  0  0  0  0  0  0
   39.9787   42.5825  -12.5364 C   0  0  2  0  0  0  0  0  0  0  0  0
   41.2903   42.3893  -12.0033 O   0  0  0  0  0  0  0  0  0  0  0  0
   41.3643   47.1184  -11.5725 C   0  0  2  0  0  0  0  0  0  0  0  0
   40.7710   47.0334  -10.2309 N   0  0  0  0  0  0  0  0  0  0  0  0
   35.0981   37.8680  -13.2695 C   0  0  1  0  0  0  0  0  0  0  0  0
   34.1646   37.6231  -14.3259 O   0  0  0  0  0  0  0  0  0  0  0  0
   36.4953   39.1912   -8.6684 C   0  0  2  0  0  0  0  0  0  0  0  0
   36.1894   37.7536   -8.7215 N   0  0  0  0  0  0  0  0  0  0  0  0
   39.8350   44.0386  -12.9746 C   0  0  2  0  0  0  0  0  0  0  0  0
   40.4169   44.9246  -12.0042 O   0  0  0  0  0  0  0  0  0  0  0  0
   41.3784   48.5871  -12.0161 C   0  0  1  0  0  0  0  0  0  0  0  0
   42.1519   48.7408  -13.2090 O   0  0  0  0  0  0  0  0  0  0  0  0
   36.2992   36.9328  -13.4218 C   0  0  2  0  0  0  0  0  0  0  0  0
   35.8774   35.5772  -13.2502 O   0  0  0  0  0  0  0  0  0  0  0  0
   37.1753   39.6014   -9.9806 C   0  0  2  0  0  0  0  0  0  0  0  0
   38.3218   44.1859  -12.9548 C   0  0  2  0  0  0  0  0  0  0  0  0
   37.8269   43.2787  -11.9462 O   0  0  0  0  0  0  0  0  0  0  0  0
   39.9601   49.0949  -12.2812 C   0  0  2  0  0  0  0  0  0  0  0  0
   39.2499   49.1508  -11.0408 O   0  0  0  0  0  0  0  0  0  0  0  0
   37.3551   37.2805  -12.3714 C   0  0  2  0  0  0  0  0  0  0  0  0
   37.7628   38.6557  -12.5126 O   0  0  0  0  0  0  0  0  0  0  0  0
   37.7619   41.0115   -9.9689 C   0  0  2  0  0  0  0  0  0  0  0  0
   38.6126   41.1824  -11.1143 O   0  0  0  0  0  0  0  0  0  0  0  0
   37.7573   43.8362  -14.3334 C   0  0  0  0  0  0  0  0  0  0  0  0
   36.3434   44.0455  -14.3265 O   0  0  0  0  0  0  0  0  0  0  0  0
   39.2631   48.1398  -13.2538 C   0  0  1  0  0  0  0  0  0  0  0  0
   39.2135   46.8342  -12.6519 O   0  0  0  0  0  0  0  0  0  0  0  0
   38.5534   36.3540  -12.5933 C   0  0  0  0  0  0  0  0  0  0  0  0
   39.6435   36.7101  -11.6737 O   0  0  0  0  0  0  0  0  0  0  0  0
   38.5581   41.2635   -8.6830 C   0  0  1  0  0  0  0  0  0  0  0  0
   39.0220   42.6151   -8.6521 O   0  0  0  0  0  0  0  0  0  0  0  0
   37.8407   48.5906  -13.5883 C   0  0  0  0  0  0  0  0  0  0  0  0
   37.8987   49.8277  -14.3795 N   0  0  0  0  0  0  0  0  0  0  0  0
  1  2  1  1  0  0  0
  1  7  1  0  0  0  0
  1 30  1  0  0  0  0
  3  4  1  1  0  0  0
  3  9  1  0  0  0  0
  3 39  1  0  0  0  0
  5 10  1  0  0  0  0
  5 26  1  0  0  0  0
  5 32  1  6  0  0  0
  6 12  1  0  0  0  0
  6 36  1  0  0  0  0
  6 19  1  1  0  0  0
  7  8  1  1  0  0  0
  7 14  1  0  0  0  0
  9 16  1  0  0  0  0
 10 11  1  1  0  0  0
 10 18  1  0  0  0  0
 12 13  1  1  0  0  0
 12 20  1  0  0  0  0
 14 15  1  6  0  0  0
 14 22  1  0  0  0  0
 16 17  1  6  0  0  0
 16 24  1  0  0  0  0
 18 19  1  1  0  0  0
 18 25  1  0  0  0  0
 20 21  1  6  0  0  0
 20 27  1  0  0  0  0
 22 23  1  1  0  0  0
 22 29  1  0  0  0  0
 24  2  1  6  0  0  0
 24 31  1  0  0  0  0
 25 26  1  0  0  0  0
 25 33  1  6  0  0  0
 27 28  1  1  0  0  0
 27 35  1  0  0  0  0
 29 30  1  0  0  0  0
 29 37  1  6  0  0  0
 31 32  1  6  0  0  0
 31 39  1  0  0  0  0
 33 34  1  0  0  0  0
 35 36  1  0  0  0  0
 35 41  1  1  0  0  0
 37 38  1  0  0  0  0
 39 40  1  1  0  0  0
 41 42  1  0  0  0  0
M  END
>  <CHROM.1>
174.63046768,173.38294136,-170.13887759,168.54097043,-169.36603676,-176.95700453
175.79846229,164.68535466,68.12114594,38.22421069,42.40252986,-11.71916754
2.29936979,1.07697904,2.38579251

>  <Name>
3c44_lig

>  <RI>
224

>  <Rbt.Current_Directory>
/home/itssahil/PROJECTS/Mol_Feturizer/New_Systems/rnas/3c44

>  <Rbt.Executable>
rbdock ($Id: //depot/dev/client3/rdock/2013.1/src/exe/rbdock.cxx#4 $)

>  <Rbt.Library>
libRbt.so (2013.1, Build901 2013/11/27)

>  <Rbt.Parameter_File>
/export/apps/rDock/src/rDock_2013.1_src/data/scripts/dock_solv.prm

>  <Rbt.Receptor>
prm/pocket_docking_8.prm

>  <SCORE>
-23.6306

>  <SCORE.INTER>
-17.8758

>  <SCORE.INTER.CONST>
1

>  <SCORE.INTER.POLAR>
-2.85158

>  <SCORE.INTER.ROT>
9

>  <SCORE.INTER.SOLV>
25.2157

>  <SCORE.INTER.VDW>
-20.4171

>  <SCORE.INTER.norm>
-0.425613

>  <SCORE.INTRA>
-5.75483

>  <SCORE.INTRA.DIHEDRAL>
-10.9963

>  <SCORE.INTRA.DIHEDRAL.0>
14.8538

>  <SCORE.INTRA.POLAR>
0

>  <SCORE.INTRA.POLAR.0>
0

>  <SCORE.INTRA.REPUL>
0.0167827

>  <SCORE.INTRA.REPUL.0>
0

>  <SCORE.INTRA.SOLV>
-5.34781

>  <SCORE.INTRA.SOLV.lig_0>
-100.951

>  <SCORE.INTRA.VDW>
2.3333

>  <SCORE.INTRA.VDW.0>
-5.71388

>  <SCORE.INTRA.norm>
-0.13702

>  <SCORE.RESTR>
0

>  <SCORE.RESTR.CAVITY>
0

>  <SCORE.RESTR.norm>
0

>  <SCORE.SYSTEM>
0

>  <SCORE.SYSTEM.CONST>
0

>  <SCORE.SYSTEM.DIHEDRAL>
0

>  <SCORE.SYSTEM.SOLV>
0

>  <SCORE.SYSTEM.norm>
0

>  <SCORE.heavy>
42

>  <SCORE.norm>
-0.562633

>  <RMSD>
6.908

$$$$
3c44_lig
 OpenBabel11021811463D
libRbt.so/2013.1/901 2013/11/27
 42 45  0  0  0  0  0  0  0  0999 V2000
   39.2963   37.1704  -11.5814 C   0  0  2  0  0  0  0  0  0  0  0  0
   38.0758   37.9020  -11.7740 O   0  0  0  0  0  0  0  0  0  0  0  0
   36.2474   40.6432   -9.2577 C   0  0  2  0  0  0  0  0  0  0  0  0
   35.7904   41.7122   -8.3564 N   0  0  0  0  0  0  0  0  0  0  0  0
   36.8983   39.9773  -14.0204 C   0  0  1  0  0  0  0  0  0  0  0  0
   35.0971   38.2476  -17.2018 C   0  0  1  0  0  0  0  0  0  0  0  0
   40.4189   37.8525  -12.3704 C   0  0  2  0  0  0  0  0  0  0  0  0
   40.5285   39.2721  -12.0048 N   0  0  0  0  0  0  0  0  0  0  0  0
   37.4512   39.9103   -8.6588 C   0  0  0  0  0  0  0  0  0  0  0  0
   35.4839   40.5057  -14.2639 C   0  0  2  0  0  0  0  0  0  0  0  0
   34.5487   39.7873  -13.4571 O   0  0  0  0  0  0  0  0  0  0  0  0
   34.0309   39.0401  -17.9654 C   0  0  2  0  0  0  0  0  0  0  0  0
   32.7494   38.8844  -17.2635 N   0  0  0  0  0  0  0  0  0  0  0  0
   40.1857   37.7416  -13.8792 C   0  0  1  0  0  0  0  0  0  0  0  0
   41.3306   38.2488  -14.5714 O   0  0  0  0  0  0  0  0  0  0  0  0
   37.7730   38.7203   -9.5690 C   0  0  2  0  0  0  0  0  0  0  0  0
   38.9646   38.0257   -9.0585 N   0  0  0  0  0  0  0  0  0  0  0  0
   35.3005   40.0869  -15.7212 C   0  0  2  0  0  0  0  0  0  0  0  0
   35.1162   38.6655  -15.8256 O   0  0  0  0  0  0  0  0  0  0  0  0
   33.8764   38.5201  -19.4006 C   0  0  1  0  0  0  0  0  0  0  0  0
   35.0239   38.8629  -20.1820 O   0  0  0  0  0  0  0  0  0  0  0  0
   39.9629   36.2778  -14.2638 C   0  0  2  0  0  0  0  0  0  0  0  0
   39.6369   36.1905  -15.6534 O   0  0  0  0  0  0  0  0  0  0  0  0
   38.0244   39.1292  -11.0257 C   0  0  2  0  0  0  0  0  0  0  0  0
   36.6577   40.4670  -16.2917 C   0  0  2  0  0  0  0  0  0  0  0  0
   37.6126   40.3437  -15.2154 O   0  0  0  0  0  0  0  0  0  0  0  0
   33.7055   37.0002  -19.4191 C   0  0  2  0  0  0  0  0  0  0  0  0
   32.4443   36.6698  -18.8306 O   0  0  0  0  0  0  0  0  0  0  0  0
   38.8202   35.6974  -13.4292 C   0  0  2  0  0  0  0  0  0  0  0  0
   39.1226   35.8116  -12.0247 O   0  0  0  0  0  0  0  0  0  0  0  0
   36.9665   40.0656  -11.6058 C   0  0  2  0  0  0  0  0  0  0  0  0
   37.4419   40.6090  -12.8482 O   0  0  0  0  0  0  0  0  0  0  0  0
   36.6054   41.9027  -16.8185 C   0  0  0  0  0  0  0  0  0  0  0  0
   35.6267   41.9842  -17.8570 O   0  0  0  0  0  0  0  0  0  0  0  0
   34.8491   36.3609  -18.6271 C   0  0  1  0  0  0  0  0  0  0  0  0
   34.7917   36.8458  -17.2740 O   0  0  0  0  0  0  0  0  0  0  0  0
   38.6669   34.2235  -13.8133 C   0  0  0  0  0  0  0  0  0  0  0  0
   37.5821   33.6093  -13.0343 O   0  0  0  0  0  0  0  0  0  0  0  0
   36.6433   41.2009  -10.6272 C   0  0  1  0  0  0  0  0  0  0  0  0
   35.5895   42.0125  -11.1506 O   0  0  0  0  0  0  0  0  0  0  0  0
   34.7626   34.8342  -18.6154 C   0  0  0  0  0  0  0  0  0  0  0  0
   35.9165   34.2899  -17.8862 N   0  0  0  0  0  0  0  0  0  0  0  0
  1  2  1  6  0  0  0
  1  7  1  0  0  0  0
  1 30  1  0  0  0  0
  3  4  1  1  0  0  0
  3  9  1  0  0  0  0
  3 39  1  0  0  0  0
  5 10  1  0  0  0  0
  5 26  1  0  0  0  0
  5 32  1  1  0  0  0
  6 12  1  0  0  0  0
  6 36  1  0  0  0  0
  6 19  1  1  0  0  0
  7  8  1  1  0  0  0
  7 14  1  0  0  0  0
  9 16  1  0  0  0  0
 10 11  1  1  0  0  0
 10 18  1  0  0  0  0
 12 13  1  1  0  0  0
 12 20  1  0  0  0  0
 14 15  1  6  0  0  0
 14 22  1  0  0  0  0
 16 17  1  1  0  0  0
 16 24  1  0  0  0  0
 18 19  1  1  0  0  0
 18 25  1  0  0  0  0
 20 21  1  6  0  0  0
 20 27  1  0  0  0  0
 22 23  1  6  0  0  0
 22 29  1  0  0  0  0
 24  2  1  6  0  0  0
 24 31  1  0  0  0  0
 25 26  1  0  0  0  0
 25 33  1  1  0  0  0
 27 28  1  1  0  0  0
 27 35  1  0  0  0  0
 29 30  1  0  0  0  0
 29 37  1  6  0  0  0
 31 32  1  6  0  0  0
 31 39  1  0  0  0  0
 33 34  1  0  0  0  0
 35 36  1  0  0  0  0
 35 41  1  1  0  0  0
 37 38  1  0  0  0  0
 39 40  1  6  0  0  0
 41 42  1  0  0  0  0
M  END
>  <CHROM.1>
-75.66770546,78.38847339,-54.82713506,-173.36921091,-74.80392987,-60.90070244
179.72578452,101.08697657,177.75222757,36.79450092,38.44994408,-14.38275187
-0.87148406,0.84594391,-2.30642497

>  <Name>
3c44_lig

>  <RI>
0

>  <Rbt.Current_Directory>
/home/itssahil/PROJECTS/Mol_Feturizer/New_Systems/rnas/3c44

>  <Rbt.Executable>
rbdock ($Id: //depot/dev/client3/rdock/2013.1/src/exe/rbdock.cxx#4 $)

>  <Rbt.Library>
libRbt.so (2013.1, Build901 2013/11/27)

>  <Rbt.Parameter_File>
/export/apps/rDock/src/rDock_2013.1_src/data/scripts/dock_solv.prm

>  <Rbt.Receptor>
prm/pocket_docking_6.prm

>  <SCORE>
-12.6034

>  <SCORE.INTER>
-14.4575

>  <SCORE.INTER.CONST>
1

>  <SCORE.INTER.POLAR>
-1.39073

>  <SCORE.INTER.ROT>
9

>  <SCORE.INTER.SOLV>
15.5564

>  <SCORE.INTER.VDW>
-19.788

>  <SCORE.INTER.norm>
-0.344226

>  <SCORE.INTRA>
1.75846

>  <SCORE.INTRA.DIHEDRAL>
-4.7855

>  <SCORE.INTRA.DIHEDRAL.0>
14.8538

>  <SCORE.INTRA.POLAR>
0

>  <SCORE.INTRA.POLAR.0>
0

>  <SCORE.INTRA.REPUL>
0

>  <SCORE.INTRA.REPUL.0>
0

>  <SCORE.INTRA.SOLV>
0.318829

>  <SCORE.INTRA.SOLV.lig_0>
-100.951

>  <SCORE.INTRA.VDW>
3.99179

>  <SCORE.INTRA.VDW.0>
-5.71388

>  <SCORE.INTRA.norm>
0.041868

>  <SCORE.RESTR>
0.09566

>  <SCORE.RESTR.CAVITY>
0.09566

>  <SCORE.RESTR.norm>
0.00227762

>  <SCORE.SYSTEM>
0

>  <SCORE.SYSTEM.CONST>
0

>  <SCORE.SYSTEM.DIHEDRAL>
0

>  <SCORE.SYSTEM.SOLV>
0

>  <SCORE.SYSTEM.norm>
0

>  <SCORE.heavy>
42

>  <SCORE.norm>
-0.300081

>  <RMSD>
6.931

$$$$
3c44_lig
 OpenBabel11021811463D
libRbt.so/2013.1/901 2013/11/27
 42 45  0  0  0  0  0  0  0  0999 V2000
   36.4048   40.7082  -13.9960 C   0  0  2  0  0  0  0  0  0  0  0  0
   36.6342   39.5714  -13.1493 O   0  0  0  0  0  0  0  0  0  0  0  0
   38.0982   39.3858   -9.2748 C   0  0  2  0  0  0  0  0  0  0  0  0
   38.8039   39.3857   -7.9841 N   0  0  0  0  0  0  0  0  0  0  0  0
   38.3791   42.5962  -12.1177 C   0  0  1  0  0  0  0  0  0  0  0  0
   41.6476   44.4065  -14.1174 C   0  0  1  0  0  0  0  0  0  0  0  0
   35.0318   40.5679  -14.6618 C   0  0  2  0  0  0  0  0  0  0  0  0
   33.9789   40.3714  -13.6549 N   0  0  0  0  0  0  0  0  0  0  0  0
   38.8352   38.5109  -10.2929 C   0  0  0  0  0  0  0  0  0  0  0  0
   38.1954   43.8777  -12.9320 C   0  0  2  0  0  0  0  0  0  0  0  0
   37.8697   43.5539  -14.2851 O   0  0  0  0  0  0  0  0  0  0  0  0
   41.2378   45.4848  -15.1259 C   0  0  2  0  0  0  0  0  0  0  0  0
   40.5360   44.8320  -16.2397 N   0  0  0  0  0  0  0  0  0  0  0  0
   35.0074   39.3955  -15.6457 C   0  0  1  0  0  0  0  0  0  0  0  0
   33.7650   39.4017  -16.3553 O   0  0  0  0  0  0  0  0  0  0  0  0
   37.9686   38.4319  -11.5541 C   0  0  2  0  0  0  0  0  0  0  0  0
   38.6731   37.6483  -12.5801 N   0  0  0  0  0  0  0  0  0  0  0  0
   39.6231   44.4186  -12.8854 C   0  0  2  0  0  0  0  0  0  0  0  0
   40.4913   43.6442  -13.7289 O   0  0  0  0  0  0  0  0  0  0  0  0
   42.4650   46.2222  -15.6774 C   0  0  1  0  0  0  0  0  0  0  0  0
   43.0416   47.0557  -14.6685 O   0  0  0  0  0  0  0  0  0  0  0  0
   36.1638   39.5270  -16.6386 C   0  0  2  0  0  0  0  0  0  0  0  0
   36.2034   38.3751  -17.4851 O   0  0  0  0  0  0  0  0  0  0  0  0
   37.6241   39.8097  -12.1333 C   0  0  2  0  0  0  0  0  0  0  0  0
   39.9691   44.1619  -11.4271 C   0  0  2  0  0  0  0  0  0  0  0  0
   39.2085   43.0058  -11.0146 O   0  0  0  0  0  0  0  0  0  0  0  0
   43.5265   45.2347  -16.1649 C   0  0  2  0  0  0  0  0  0  0  0  0
   43.0280   44.5529  -17.3193 O   0  0  0  0  0  0  0  0  0  0  0  0
   37.4830   39.6503  -15.8746 C   0  0  2  0  0  0  0  0  0  0  0  0
   37.4417   40.7887  -14.9917 O   0  0  0  0  0  0  0  0  0  0  0  0
   37.1038   40.8107  -11.1038 C   0  0  2  0  0  0  0  0  0  0  0  0
   37.0914   42.1257  -11.6829 O   0  0  0  0  0  0  0  0  0  0  0  0
   39.5999   45.3896  -10.5917 C   0  0  0  0  0  0  0  0  0  0  0  0
   40.4322   46.4855  -10.9782 O   0  0  0  0  0  0  0  0  0  0  0  0
   43.8304   44.2369  -15.0442 C   0  0  1  0  0  0  0  0  0  0  0  0
   42.6176   43.5347  -14.7195 O   0  0  0  0  0  0  0  0  0  0  0  0
   38.6013   39.8274  -16.9048 C   0  0  0  0  0  0  0  0  0  0  0  0
   38.4450   41.1114  -17.6034 O   0  0  0  0  0  0  0  0  0  0  0  0
   37.9750   40.8023   -9.8421 C   0  0  1  0  0  0  0  0  0  0  0  0
   37.4201   41.6788   -8.8589 O   0  0  0  0  0  0  0  0  0  0  0  0
   44.9027   43.2236  -15.4462 C   0  0  0  0  0  0  0  0  0  0  0  0
   44.3806   42.3673  -16.5203 N   0  0  0  0  0  0  0  0  0  0  0  0
  1  2  1  1  0  0  0
  1  7  1  0  0  0  0
  1 30  1  0  0  0  0
  3  4  1  1  0  0  0
  3  9  1  0  0  0  0
  3 39  1  0  0  0  0
  5 10  1  0  0  0  0
  5 26  1  0  0  0  0
  5 32  1  1  0  0  0
  6 12  1  0  0  0  0
  6 36  1  0  0  0  0
  6 19  1  6  0  0  0
  7  8  1  1  0  0  0
  7 14  1  0  0  0  0
  9 16  1  0  0  0  0
 10 11  1  6  0  0  0
 10 18  1  0  0  0  0
 12 13  1  6  0  0  0
 12 20  1  0  0  0  0
 14 15  1  6  0  0  0
 14 22  1  0  0  0  0
 16 17  1  6  0  0  0
 16 24  1  0  0  0  0
 18 19  1  6  0  0  0
 18 25  1  0  0  0  0
 20 21  1  1  0  0  0
 20 27  1  0  0  0  0
 22 23  1  6  0  0  0
 22 29  1  0  0  0  0
 24  2  1  6  0  0  0
 24 31  1  0  0  0  0
 25 26  1  0  0  0  0
 25 33  1  1  0  0  0
 27 28  1  6  0  0  0
 27 35  1  0  0  0  0
 29 30  1  0  0  0  0
 29 37  1  6  0  0  0
 31 32  1  6  0  0  0
 31 39  1  0  0  0  0
 33 34  1  0  0  0  0
 35 36  1  0  0  0  0
 35 41  1  6  0  0  0
 37 38  1  0  0  0  0
 39 40  1  1  0  0  0
 41 42  1  0  0  0  0
M  END
>  <CHROM.1>
-158.82798282,169.91448725,-71.78729736,157.02464304,-167.25728683,-65.80576923
66.09055769,-59.86907438,-66.36350351,39.03858246,42.07095078,-13.67362943
2.99027318,0.73078972,1.46829885

>  <Name>
3c44_lig

>  <RI>
0

>  <Rbt.Current_Directory>
/home/itssahil/PROJECTS/Mol_Feturizer/New_Systems/rnas/3c44

>  <Rbt.Executable>
rbdock ($Id: //depot/dev/client3/rdock/2013.1/src/exe/rbdock.cxx#4 $)

>  <Rbt.Library>
libRbt.so (2013.1, Build901 2013/11/27)

>  <Rbt.Parameter_File>
/export/apps/rDock/src/rDock_2013.1_src/data/scripts/dock_solv.prm

>  <Rbt.Receptor>
prm/pocket_docking_5.prm

>  <SCORE>
-13.2058

>  <SCORE.INTER>
-11.2624

>  <SCORE.INTER.CONST>
1

>  <SCORE.INTER.POLAR>
-1.91652

>  <SCORE.INTER.ROT>
9

>  <SCORE.INTER.SOLV>
14.9037

>  <SCORE.INTER.VDW>
-15.6878

>  <SCORE.INTER.norm>
-0.268153

>  <SCORE.INTRA>
-1.94333

>  <SCORE.INTRA.DIHEDRAL>
-7.94778

>  <SCORE.INTRA.DIHEDRAL.0>
14.8538

>  <SCORE.INTRA.POLAR>
0

>  <SCORE.INTRA.POLAR.0>
0

>  <SCORE.INTRA.REPUL>
0.0352679

>  <SCORE.INTRA.REPUL.0>
0

>  <SCORE.INTRA.SOLV>
-1.19839

>  <SCORE.INTRA.SOLV.lig_0>
-100.951

>  <SCORE.INTRA.VDW>
2.45341

>  <SCORE.INTRA.VDW.0>
-5.71388

>  <SCORE.INTRA.norm>
-0.0462698

>  <SCORE.RESTR>
0

>  <SCORE.RESTR.CAVITY>
0

>  <SCORE.RESTR.norm>
0

>  <SCORE.SYSTEM>
0

>  <SCORE.SYSTEM.CONST>
0

>  <SCORE.SYSTEM.DIHEDRAL>
0

>  <SCORE.SYSTEM.SOLV>
0

>  <SCORE.SYSTEM.norm>
0

>  <SCORE.heavy>
42

>  <SCORE.norm>
-0.314423

>  <RMSD>
6.958

$$$$
3c44_lig
 OpenBabel11021811463D
libRbt.so/2013.1/901 2013/11/27
 42 45  0  0  0  0  0  0  0  0999 V2000
   36.4073   38.2459  -15.9168 C   0  0  2  0  0  0  0  0  0  0  0  0
   35.9463   36.8885  -15.8352 O   0  0  0  0  0  0  0  0  0  0  0  0
   36.8820   33.9433  -13.0712 C   0  0  2  0  0  0  0  0  0  0  0  0
   37.4095   32.8993  -12.1791 N   0  0  0  0  0  0  0  0  0  0  0  0
   37.7213   38.1208  -12.1625 C   0  0  1  0  0  0  0  0  0  0  0  0
   38.4526   39.9091   -8.4601 C   0  0  1  0  0  0  0  0  0  0  0  0
   35.2086   39.1679  -16.1638 C   0  0  2  0  0  0  0  0  0  0  0  0
   34.1730   38.9665  -15.1400 N   0  0  0  0  0  0  0  0  0  0  0  0
   37.0648   33.5427  -14.5379 C   0  0  0  0  0  0  0  0  0  0  0  0
   38.5088   39.4318  -12.1499 C   0  0  2  0  0  0  0  0  0  0  0  0
   39.9104   39.1589  -12.0992 O   0  0  0  0  0  0  0  0  0  0  0  0
   39.3034   39.2408   -7.3751 C   0  0  2  0  0  0  0  0  0  0  0  0
   39.0043   37.8022   -7.3749 N   0  0  0  0  0  0  0  0  0  0  0  0
   34.5975   38.9283  -17.5466 C   0  0  1  0  0  0  0  0  0  0  0  0
   33.5896   39.9134  -17.7935 O   0  0  0  0  0  0  0  0  0  0  0  0
   36.3581   34.5940  -15.4002 C   0  0  2  0  0  0  0  0  0  0  0  0
   36.5643   34.2760  -16.8212 N   0  0  0  0  0  0  0  0  0  0  0  0
   38.0656   39.9848  -10.7969 C   0  0  2  0  0  0  0  0  0  0  0  0
   38.6756   39.2534   -9.7208 O   0  0  0  0  0  0  0  0  0  0  0  0
   38.9827   39.8140   -5.9885 C   0  0  1  0  0  0  0  0  0  0  0  0
   39.4731   41.1525   -5.8759 O   0  0  0  0  0  0  0  0  0  0  0  0
   35.6840   39.0288  -18.6188 C   0  0  2  0  0  0  0  0  0  0  0  0
   35.1316   38.6962  -19.8952 O   0  0  0  0  0  0  0  0  0  0  0  0
   36.8548   36.0207  -15.1350 C   0  0  2  0  0  0  0  0  0  0  0  0
   36.5779   39.6737  -10.8443 C   0  0  2  0  0  0  0  0  0  0  0  0
   36.4237   38.4944  -11.6633 O   0  0  0  0  0  0  0  0  0  0  0  0
   37.4748   39.8198   -5.7315 C   0  0  2  0  0  0  0  0  0  0  0  0
   37.0193   38.4682   -5.6230 O   0  0  0  0  0  0  0  0  0  0  0  0
   36.8240   38.0656  -18.2842 C   0  0  2  0  0  0  0  0  0  0  0  0
   37.3661   38.3694  -16.9838 O   0  0  0  0  0  0  0  0  0  0  0  0
   36.9216   36.3969  -13.6562 C   0  0  2  0  0  0  0  0  0  0  0  0
   37.6609   37.6203  -13.5095 O   0  0  0  0  0  0  0  0  0  0  0  0
   35.8271   40.8634  -11.4464 C   0  0  0  0  0  0  0  0  0  0  0  0
   35.9312   41.9792  -10.5593 O   0  0  0  0  0  0  0  0  0  0  0  0
   36.7745   40.5285   -6.8940 C   0  0  1  0  0  0  0  0  0  0  0  0
   37.0641   39.8093   -8.1057 O   0  0  0  0  0  0  0  0  0  0  0  0
   37.9050   38.2360  -19.3546 C   0  0  0  0  0  0  0  0  0  0  0  0
   38.7161   39.4279  -19.0672 O   0  0  0  0  0  0  0  0  0  0  0  0
   37.5840   35.2832  -12.8366 C   0  0  1  0  0  0  0  0  0  0  0  0
   37.5557   35.6161  -11.4468 O   0  0  0  0  0  0  0  0  0  0  0  0
   35.2589   40.5956   -6.7023 C   0  0  0  0  0  0  0  0  0  0  0  0
   34.9513   41.5120   -5.5954 N   0  0  0  0  0  0  0  0  0  0  0  0
  1  2  1  6  0  0  0
  1  7  1  0  0  0  0
  1 30  1  0  0  0  0
  3  4  1  1  0  0  0
  3  9  1  0  0  0  0
  3 39  1  0  0  0  0
  5 10  1  0  0  0  0
  5 26  1  0  0  0  0
  5 32  1  6  0  0  0
  6 12  1  0  0  0  0
  6 36  1  0  0  0  0
  6 19  1  6  0  0  0
  7  8  1  1  0  0  0
  7 14  1  0  0  0  0
  9 16  1  0  0  0  0
 10 11  1  1  0  0  0
 10 18  1  0  0  0  0
 12 13  1  1  0  0  0
 12 20  1  0  0  0  0
 14 15  1  6  0  0  0
 14 22  1  0  0  0  0
 16 17  1  6  0  0  0
 16 24  1  0  0  0  0
 18 19  1  1  0  0  0
 18 25  1  0  0  0  0
 20 21  1  6  0  0  0
 20 27  1  0  0  0  0
 22 23  1  6  0  0  0
 22 29  1  0  0  0  0
 24  2  1  6  0  0  0
 24 31  1  0  0  0  0
 25 26  1  0  0  0  0
 25 33  1  6  0  0  0
 27 28  1  6  0  0  0
 27 35  1  0  0  0  0
 29 30  1  0  0  0  0
 29 37  1  6  0  0  0
 31 32  1  6  0  0  0
 31 39  1  0  0  0  0
 33 34  1  0  0  0  0
 35 36  1  0  0  0  0
 35 41  1  1  0  0  0
 37 38  1  0  0  0  0
 39 40  1  1  0  0  0
 41 42  1  0  0  0  0
M  END
>  <CHROM.1>
-158.27310414,-178.93969986,-170.62581579,169.88152873,-168.40861034,-66.22481467
79.66123731,176.37128175,69.07487505,36.99997963,38.35804389,-12.49649334
2.00207440,1.26550837,-2.20188418

>  <Name>
3c44_lig

>  <RI>
224

>  <Rbt.Current_Directory>
/home/itssahil/PROJECTS/Mol_Feturizer/New_Systems/rnas/3c44

>  <Rbt.Executable>
rbdock ($Id: //depot/dev/client3/rdock/2013.1/src/exe/rbdock.cxx#4 $)

>  <Rbt.Library>
libRbt.so (2013.1, Build901 2013/11/27)

>  <Rbt.Parameter_File>
/export/apps/rDock/src/rDock_2013.1_src/data/scripts/dock_solv.prm

>  <Rbt.Receptor>
prm/pocket_docking_8.prm

>  <SCORE>
-16.0805

>  <SCORE.INTER>
-12.9443

>  <SCORE.INTER.CONST>
1

>  <SCORE.INTER.POLAR>
-2.84356

>  <SCORE.INTER.ROT>
9

>  <SCORE.INTER.SOLV>
23.1378

>  <SCORE.INTER.VDW>
-16.4636

>  <SCORE.INTER.norm>
-0.308198

>  <SCORE.INTRA>
-3.13614

>  <SCORE.INTRA.DIHEDRAL>
-8.96573

>  <SCORE.INTRA.DIHEDRAL.0>
14.8538

>  <SCORE.INTRA.POLAR>
0

>  <SCORE.INTRA.POLAR.0>
0

>  <SCORE.INTRA.REPUL>
0.0208733

>  <SCORE.INTRA.REPUL.0>
0

>  <SCORE.INTRA.SOLV>
-4.0442

>  <SCORE.INTRA.SOLV.lig_0>
-100.951

>  <SCORE.INTRA.VDW>
3.26446

>  <SCORE.INTRA.VDW.0>
-5.71388

>  <SCORE.INTRA.norm>
-0.07467

>  <SCORE.RESTR>
0

>  <SCORE.RESTR.CAVITY>
0

>  <SCORE.RESTR.norm>
0

>  <SCORE.SYSTEM>
0

>  <SCORE.SYSTEM.CONST>
0

>  <SCORE.SYSTEM.DIHEDRAL>
0

>  <SCORE.SYSTEM.SOLV>
0

>  <SCORE.SYSTEM.norm>
0

>  <SCORE.heavy>
42

>  <SCORE.norm>
-0.382868

>  <RMSD>
7.043

$$$$
3c44_lig
 OpenBabel11021811463D
libRbt.so/2013.1/901 2013/11/27
 42 45  0  0  0  0  0  0  0  0999 V2000
   40.5991   38.4662  -12.8335 C   0  0  2  0  0  0  0  0  0  0  0  0
   39.7732   39.6358  -12.7257 O   0  0  0  0  0  0  0  0  0  0  0  0
   38.6388   38.3468   -8.9520 C   0  0  2  0  0  0  0  0  0  0  0  0
   38.2108   38.0975   -7.5669 N   0  0  0  0  0  0  0  0  0  0  0  0
   36.6230   39.1870  -13.2988 C   0  0  1  0  0  0  0  0  0  0  0  0
   35.2750   37.8285  -17.0003 C   0  0  1  0  0  0  0  0  0  0  0  0
   41.0846   38.3274  -14.2802 C   0  0  2  0  0  0  0  0  0  0  0  0
   41.7563   39.5562  -14.7275 N   0  0  0  0  0  0  0  0  0  0  0  0
   39.8407   39.2952   -8.9830 C   0  0  0  0  0  0  0  0  0  0  0  0
   35.4829   39.9646  -13.9579 C   0  0  2  0  0  0  0  0  0  0  0  0
   34.2240   39.4650  -13.5025 O   0  0  0  0  0  0  0  0  0  0  0  0
   34.4500   38.8552  -17.7832 C   0  0  2  0  0  0  0  0  0  0  0  0
   33.1150   38.9354  -17.1746 N   0  0  0  0  0  0  0  0  0  0  0  0
   39.9244   38.0181  -15.2295 C   0  0  1  0  0  0  0  0  0  0  0  0
   40.4437   37.7416  -16.5338 O   0  0  0  0  0  0  0  0  0  0  0  0
   40.3268   39.3851  -10.4335 C   0  0  2  0  0  0  0  0  0  0  0  0
   41.4449   40.3370  -10.5137 N   0  0  0  0  0  0  0  0  0  0  0  0
   35.6860   39.5369  -15.4101 C   0  0  2  0  0  0  0  0  0  0  0  0
   35.2759   38.1733  -15.6038 O   0  0  0  0  0  0  0  0  0  0  0  0
   34.3007   38.4410  -19.2530 C   0  0  1  0  0  0  0  0  0  0  0  0
   35.5485   38.5748  -19.9386 O   0  0  0  0  0  0  0  0  0  0  0  0
   39.1472   36.8027  -14.7206 C   0  0  2  0  0  0  0  0  0  0  0  0
   38.0013   36.5844  -15.5479 O   0  0  0  0  0  0  0  0  0  0  0  0
   39.2286   39.8279  -11.4084 C   0  0  2  0  0  0  0  0  0  0  0  0
   37.1997   39.6329  -15.5180 C   0  0  2  0  0  0  0  0  0  0  0  0
   37.7300   39.3691  -14.2010 O   0  0  0  0  0  0  0  0  0  0  0  0
   33.8287   36.9907  -19.3700 C   0  0  2  0  0  0  0  0  0  0  0  0
   32.4867   36.9008  -18.8830 O   0  0  0  0  0  0  0  0  0  0  0  0
   38.7018   37.0472  -13.2781 C   0  0  2  0  0  0  0  0  0  0  0  0
   39.8466   37.3031  -12.4408 O   0  0  0  0  0  0  0  0  0  0  0  0
   37.9123   39.0682  -11.2577 C   0  0  2  0  0  0  0  0  0  0  0  0
   36.8846   39.7453  -11.9994 O   0  0  0  0  0  0  0  0  0  0  0  0
   37.5889   41.0331  -15.9971 C   0  0  0  0  0  0  0  0  0  0  0  0
   37.0361   41.2529  -17.2968 O   0  0  0  0  0  0  0  0  0  0  0  0
   34.7581   36.0966  -18.5449 C   0  0  1  0  0  0  0  0  0  0  0  0
   34.6994   36.5236  -17.1725 O   0  0  0  0  0  0  0  0  0  0  0  0
   37.9728   35.7897  -12.7978 C   0  0  0  0  0  0  0  0  0  0  0  0
   38.9281   34.6846  -12.6334 O   0  0  0  0  0  0  0  0  0  0  0  0
   37.5081   38.9591   -9.7826 C   0  0  1  0  0  0  0  0  0  0  0  0
   36.3232   38.1696   -9.6574 O   0  0  0  0  0  0  0  0  0  0  0  0
   34.3649   34.6211  -18.6268 C   0  0  0  0  0  0  0  0  0  0  0  0
   35.2826   33.8291  -17.7961 N   0  0  0  0  0  0  0  0  0  0  0  0
  1  2  1  6  0  0  0
  1  7  1  0  0  0  0
  1 30  1  0  0  0  0
  3  4  1  1  0  0  0
  3  9  1  0  0  0  0
  3 39  1  0  0  0  0
  5 10  1  0  0  0  0
  5 26  1  0  0  0  0
  5 32  1  1  0  0  0
  6 12  1  0  0  0  0
  6 36  1  0  0  0  0
  6 19  1  1  0  0  0
  7  8  1  6  0  0  0
  7 14  1  0  0  0  0
  9 16  1  0  0  0  0
 10 11  1  1  0  0  0
 10 18  1  0  0  0  0
 12 13  1  1  0  0  0
 12 20  1  0  0  0  0
 14 15  1  6  0  0  0
 14 22  1  0  0  0  0
 16 17  1  1  0  0  0
 16 24  1  0  0  0  0
 18 19  1  1  0  0  0
 18 25  1  0  0  0  0
 20 21  1  6  0  0  0
 20 27  1  0  0  0  0
 22 23  1  6  0  0  0
 22 29  1  0  0  0  0
 24  2  1  6  0  0  0
 24 31  1  0  0  0  0
 25 26  1  0  0  0  0
 25 33  1  1  0  0  0
 27 28  1  1  0  0  0
 27 35  1  0  0  0  0
 29 30  1  0  0  0  0
 29 37  1  1  0  0  0
 31 32  1  6  0  0  0
 31 39  1  0  0  0  0
 33 34  1  0  0  0  0
 35 36  1  0  0  0  0
 35 41  1  1  0  0  0
 37 38  1  0  0  0  0
 39 40  1  6  0  0  0
 41 42  1  0  0  0  0
M  END
>  <CHROM.1>
177.98206706,178.04470894,-52.63121707,171.34267900,36.87088220,-61.89635577
69.86933396,98.28385468,-179.04786505,37.30009491,38.23633264,-14.41996830
-1.00872722,-0.00278371,-1.75515327

>  <Name>
3c44_lig

>  <RI>
0

>  <Rbt.Current_Directory>
/home/itssahil/PROJECTS/Mol_Feturizer/New_Systems/rnas/3c44

>  <Rbt.Executable>
rbdock ($Id: //depot/dev/client3/rdock/2013.1/src/exe/rbdock.cxx#4 $)

>  <Rbt.Library>
libRbt.so (2013.1, Build901 2013/11/27)

>  <Rbt.Parameter_File>
/export/apps/rDock/src/rDock_2013.1_src/data/scripts/dock_solv.prm

>  <Rbt.Receptor>
prm/pocket_docking_6.prm

>  <SCORE>
-15.8186

>  <SCORE.INTER>
-17.8293

>  <SCORE.INTER.CONST>
1

>  <SCORE.INTER.POLAR>
-3.39348

>  <SCORE.INTER.ROT>
9

>  <SCORE.INTER.SOLV>
18.3983

>  <SCORE.INTER.VDW>
-16.3074

>  <SCORE.INTER.norm>
-0.424507

>  <SCORE.INTRA>
2.00543

>  <SCORE.INTRA.DIHEDRAL>
-5.95843

>  <SCORE.INTRA.DIHEDRAL.0>
14.8538

>  <SCORE.INTRA.POLAR>
0

>  <SCORE.INTRA.POLAR.0>
0

>  <SCORE.INTRA.REPUL>
0.0532247

>  <SCORE.INTRA.REPUL.0>
0

>  <SCORE.INTRA.SOLV>
-0.749495

>  <SCORE.INTRA.SOLV.lig_0>
-100.951

>  <SCORE.INTRA.VDW>
5.09327

>  <SCORE.INTRA.VDW.0>
-5.71388

>  <SCORE.INTRA.norm>
0.0477482

>  <SCORE.RESTR>
0.00526673

>  <SCORE.RESTR.CAVITY>
0.00526673

>  <SCORE.RESTR.norm>
0.000125398

>  <SCORE.SYSTEM>
0

>  <SCORE.SYSTEM.CONST>
0

>  <SCORE.SYSTEM.DIHEDRAL>
0

>  <SCORE.SYSTEM.SOLV>
0

>  <SCORE.SYSTEM.norm>
0

>  <SCORE.heavy>
42

>  <SCORE.norm>
-0.376634

>  <RMSD>
7.213

$$$$
3c44_lig
 OpenBabel11021811463D
libRbt.so/2013.1/901 2013/11/27
 42 45  0  0  0  0  0  0  0  0999 V2000
   40.7582   36.2631  -19.3232 C   0  0  2  0  0  0  0  0  0  0  0  0
   39.5088   35.6365  -18.9943 O   0  0  0  0  0  0  0  0  0  0  0  0
   38.0816   32.1038  -20.6292 C   0  0  2  0  0  0  0  0  0  0  0  0
   37.7527   30.7600  -21.1290 N   0  0  0  0  0  0  0  0  0  0  0  0
   37.9016   34.7944  -16.5331 C   0  0  1  0  0  0  0  0  0  0  0  0
   36.4718   38.0508  -14.7185 C   0  0  1  0  0  0  0  0  0  0  0  0
   41.6507   36.2847  -18.0779 C   0  0  2  0  0  0  0  0  0  0  0  0
   41.8073   34.9329  -17.5220 N   0  0  0  0  0  0  0  0  0  0  0  0
   39.4619   32.5418  -21.1272 C   0  0  0  0  0  0  0  0  0  0  0  0
   37.2856   34.4518  -15.1758 C   0  0  2  0  0  0  0  0  0  0  0  0
   35.9300   34.0335  -15.3465 O   0  0  0  0  0  0  0  0  0  0  0  0
   35.8280   38.2762  -13.3465 C   0  0  2  0  0  0  0  0  0  0  0  0
   34.4260   37.8421  -13.4177 N   0  0  0  0  0  0  0  0  0  0  0  0
   41.0775   37.2059  -16.9981 C   0  0  1  0  0  0  0  0  0  0  0  0
   42.0184   37.3174  -15.9259 O   0  0  0  0  0  0  0  0  0  0  0  0
   39.6703   33.9993  -20.7023 C   0  0  2  0  0  0  0  0  0  0  0  0
   41.0135   34.4376  -21.1104 N   0  0  0  0  0  0  0  0  0  0  0  0
   37.2961   35.8367  -14.5319 C   0  0  2  0  0  0  0  0  0  0  0  0
   36.2912   36.6807  -15.1174 O   0  0  0  0  0  0  0  0  0  0  0  0
   35.8686   39.7586  -12.9525 C   0  0  1  0  0  0  0  0  0  0  0  0
   37.2076   40.1578  -12.6486 O   0  0  0  0  0  0  0  0  0  0  0  0
   40.8076   38.5915  -17.5875 C   0  0  2  0  0  0  0  0  0  0  0  0
   40.1710   39.4150  -16.6068 O   0  0  0  0  0  0  0  0  0  0  0  0
   39.5182   34.2117  -19.1909 C   0  0  2  0  0  0  0  0  0  0  0  0
   38.6751   36.3248  -14.9469 C   0  0  2  0  0  0  0  0  0  0  0  0
   38.9835   35.6856  -16.2046 O   0  0  0  0  0  0  0  0  0  0  0  0
   35.3366   40.6422  -14.0821 C   0  0  2  0  0  0  0  0  0  0  0  0
   33.9356   40.3995  -14.2380 O   0  0  0  0  0  0  0  0  0  0  0  0
   39.9035   38.4588  -18.8140 C   0  0  2  0  0  0  0  0  0  0  0  0
   40.5198   37.6022  -19.7956 O   0  0  0  0  0  0  0  0  0  0  0  0
   38.2629   33.5807  -18.5920 C   0  0  2  0  0  0  0  0  0  0  0  0
   38.3655   33.5853  -17.1587 O   0  0  0  0  0  0  0  0  0  0  0  0
   39.6956   35.9444  -13.8720 C   0  0  0  0  0  0  0  0  0  0  0  0
   39.8094   34.5206  -13.8186 O   0  0  0  0  0  0  0  0  0  0  0  0
   36.0851   40.3032  -15.3739 C   0  0  1  0  0  0  0  0  0  0  0  0
   35.8538   38.9174  -15.6831 O   0  0  0  0  0  0  0  0  0  0  0  0
   39.7014   39.8604  -19.3956 C   0  0  0  0  0  0  0  0  0  0  0  0
   40.9967   40.4372  -19.7833 O   0  0  0  0  0  0  0  0  0  0  0  0
   38.0752   32.1459  -19.0990 C   0  0  1  0  0  0  0  0  0  0  0  0
   36.8502   31.6064  -18.5977 O   0  0  0  0  0  0  0  0  0  0  0  0
   35.6245   41.1621  -16.5522 C   0  0  0  0  0  0  0  0  0  0  0  0
   34.3496   40.6393  -17.0629 N   0  0  0  0  0  0  0  0  0  0  0  0
  1  2  1  1  0  0  0
  1  7  1  0  0  0  0
  1 30  1  0  0  0  0
  3  4  1  1  0  0  0
  3  9  1  0  0  0  0
  3 39  1  0  0  0  0
  5 10  1  0  0  0  0
  5 26  1  0  0  0  0
  5 32  1  1  0  0  0
  6 12  1  0  0  0  0
  6 36  1  0  0  0  0
  6 19  1  6  0  0  0
  7  8  1  1  0  0  0
  7 14  1  0  0  0  0
  9 16  1  0  0  0  0
 10 11  1  6  0  0  0
 10 18  1  0  0  0  0
 12 13  1  6  0  0  0
 12 20  1  0  0  0  0
 14 15  1  1  0  0  0
 14 22  1  0  0  0  0
 16 17  1  1  0  0  0
 16 24  1  0  0  0  0
 18 19  1  6  0  0  0
 18 25  1  0  0  0  0
 20 21  1  6  0  0  0
 20 27  1  0  0  0  0
 22 23  1  1  0  0  0
 22 29  1  0  0  0  0
 24  2  1  6  0  0  0
 24 31  1  0  0  0  0
 25 26  1  0  0  0  0
 25 33  1  1  0  0  0
 27 28  1  6  0  0  0
 27 35  1  0  0  0  0
 29 30  1  0  0  0  0
 29 37  1  6  0  0  0
 31 32  1  1  0  0  0
 31 39  1  0  0  0  0
 33 34  1  0  0  0  0
 35 36  1  0  0  0  0
 35 41  1  6  0  0  0
 37 38  1  0  0  0  0
 39 40  1  6  0  0  0
 41 42  1  0  0  0  0
M  END
>  <CHROM.1>
-89.47327403,146.85051492,-83.14209367,-168.18345549,-66.01340730,65.69664348
60.00591928,86.76367533,-78.33006639,38.30478497,36.57669821,-16.92502411
-0.98829021,0.73685681,0.29887403

>  <Name>
3c44_lig

>  <RI>
224

>  <Rbt.Current_Directory>
/home/itssahil/PROJECTS/Mol_Feturizer/New_Systems/rnas/3c44

>  <Rbt.Executable>
rbdock ($Id: //depot/dev/client3/rdock/2013.1/src/exe/rbdock.cxx#4 $)

>  <Rbt.Library>
libRbt.so (2013.1, Build901 2013/11/27)

>  <Rbt.Parameter_File>
/export/apps/rDock/src/rDock_2013.1_src/data/scripts/dock_solv.prm

>  <Rbt.Receptor>
prm/pocket_docking_8.prm

>  <SCORE>
-3.16916

>  <SCORE.INTER>
-8.14621

>  <SCORE.INTER.CONST>
1

>  <SCORE.INTER.POLAR>
-2.04966

>  <SCORE.INTER.ROT>
9

>  <SCORE.INTER.SOLV>
17.1559

>  <SCORE.INTER.VDW>
-13.9172

>  <SCORE.INTER.norm>
-0.193957

>  <SCORE.INTRA>
4.94809

>  <SCORE.INTRA.DIHEDRAL>
0.563235

>  <SCORE.INTRA.DIHEDRAL.0>
14.8538

>  <SCORE.INTRA.POLAR>
0

>  <SCORE.INTRA.POLAR.0>
0

>  <SCORE.INTRA.REPUL>
0

>  <SCORE.INTRA.REPUL.0>
0

>  <SCORE.INTRA.SOLV>
3.24613

>  <SCORE.INTRA.SOLV.lig_0>
-100.951

>  <SCORE.INTRA.VDW>
3.0434

>  <SCORE.INTRA.VDW.0>
-5.71388

>  <SCORE.INTRA.norm>
0.117812

>  <SCORE.RESTR>
0.0289594

>  <SCORE.RESTR.CAVITY>
0.0289594

>  <SCORE.RESTR.norm>
0.000689509

>  <SCORE.SYSTEM>
0

>  <SCORE.SYSTEM.CONST>
0

>  <SCORE.SYSTEM.DIHEDRAL>
0

>  <SCORE.SYSTEM.SOLV>
0

>  <SCORE.SYSTEM.norm>
0

>  <SCORE.heavy>
42

>  <SCORE.norm>
-0.0754562

>  <RMSD>
7.297

$$$$
3c44_lig
 OpenBabel11021811463D
libRbt.so/2013.1/901 2013/11/27
 42 45  0  0  0  0  0  0  0  0999 V2000
   37.4152   38.5158  -11.4164 C   0  0  2  0  0  0  0  0  0  0  0  0
   36.0687   38.0589  -11.6159 O   0  0  0  0  0  0  0  0  0  0  0  0
   34.3605   35.0098  -13.8464 C   0  0  2  0  0  0  0  0  0  0  0  0
   33.8567   34.0147  -14.8055 N   0  0  0  0  0  0  0  0  0  0  0  0
   38.4604   35.7699  -13.7783 C   0  0  1  0  0  0  0  0  0  0  0  0
   40.1597   36.1811  -17.5266 C   0  0  1  0  0  0  0  0  0  0  0  0
   37.5867   38.9467   -9.9560 C   0  0  2  0  0  0  0  0  0  0  0  0
   37.1992   37.8632   -9.0411 N   0  0  0  0  0  0  0  0  0  0  0  0
   34.0154   36.4283  -14.3092 C   0  0  0  0  0  0  0  0  0  0  0  0
   38.7541   37.2017  -14.2285 C   0  0  2  0  0  0  0  0  0  0  0  0
   37.5966   37.7660  -14.8477 O   0  0  0  0  0  0  0  0  0  0  0  0
   39.4604   36.2616  -18.8876 C   0  0  2  0  0  0  0  0  0  0  0  0
   38.3632   35.2843  -18.9012 N   0  0  0  0  0  0  0  0  0  0  0  0
   36.7511   40.1898   -9.6405 C   0  0  1  0  0  0  0  0  0  0  0  0
   37.0640   40.6454   -8.3207 O   0  0  0  0  0  0  0  0  0  0  0  0
   34.4284   37.3959  -13.1951 C   0  0  2  0  0  0  0  0  0  0  0  0
   34.1683   38.7768  -13.6290 N   0  0  0  0  0  0  0  0  0  0  0  0
   39.8016   36.9231  -15.3045 C   0  0  2  0  0  0  0  0  0  0  0  0
   39.1930   36.3550  -16.4758 O   0  0  0  0  0  0  0  0  0  0  0  0
   40.4312   35.9330  -20.0293 C   0  0  1  0  0  0  0  0  0  0  0  0
   41.3826   36.9877  -20.1948 O   0  0  0  0  0  0  0  0  0  0  0  0
   37.0639   41.2955  -10.6505 C   0  0  2  0  0  0  0  0  0  0  0  0
   36.2033   42.4141  -10.4201 O   0  0  0  0  0  0  0  0  0  0  0  0
   35.9069   37.2691  -12.8071 C   0  0  2  0  0  0  0  0  0  0  0  0
   40.6428   35.8668  -14.6054 C   0  0  2  0  0  0  0  0  0  0  0  0
   39.7616   35.1581  -13.7074 O   0  0  0  0  0  0  0  0  0  0  0  0
   41.1844   34.6307  -19.7527 C   0  0  2  0  0  0  0  0  0  0  0  0
   40.2591   33.5412  -19.8071 O   0  0  0  0  0  0  0  0  0  0  0  0
   36.8526   40.7668  -12.0700 C   0  0  2  0  0  0  0  0  0  0  0  0
   37.6901   39.6171  -12.3022 O   0  0  0  0  0  0  0  0  0  0  0  0
   36.3710   35.8343  -12.5648 C   0  0  2  0  0  0  0  0  0  0  0  0
   37.8060   35.8033  -12.4980 O   0  0  0  0  0  0  0  0  0  0  0  0
   41.7795   36.5458  -13.8384 C   0  0  0  0  0  0  0  0  0  0  0  0
   42.4783   37.4265  -14.7210 O   0  0  0  0  0  0  0  0  0  0  0  0
   41.8312   34.7143  -18.3676 C   0  0  1  0  0  0  0  0  0  0  0  0
   40.7914   34.8981  -17.3906 O   0  0  0  0  0  0  0  0  0  0  0  0
   37.2228   41.8890  -13.0432 C   0  0  0  0  0  0  0  0  0  0  0  0
   36.2045   42.9484  -13.0025 O   0  0  0  0  0  0  0  0  0  0  0  0
   35.8784   34.9032  -13.6790 C   0  0  1  0  0  0  0  0  0  0  0  0
   36.2469   33.5535  -13.3869 O   0  0  0  0  0  0  0  0  0  0  0  0
   42.6248   33.4536  -18.0222 C   0  0  0  0  0  0  0  0  0  0  0  0
   43.6581   33.2373  -19.0444 N   0  0  0  0  0  0  0  0  0  0  0  0
  1  2  1  1  0  0  0
  1  7  1  0  0  0  0
  1 30  1  0  0  0  0
  3  4  1  6  0  0  0
  3  9  1  0  0  0  0
  3 39  1  0  0  0  0
  5 10  1  0  0  0  0
  5 26  1  0  0  0  0
  5 32  1  1  0  0  0
  6 12  1  0  0  0  0
  6 36  1  0  0  0  0
  6 19  1  1  0  0  0
  7  8  1  1  0  0  0
  7 14  1  0  0  0  0
  9 16  1  0  0  0  0
 10 11  1  6  0  0  0
 10 18  1  0  0  0  0
 12 13  1  1  0  0  0
 12 20  1  0  0  0  0
 14 15  1  1  0  0  0
 14 22  1  0  0  0  0
 16 17  1  6  0  0  0
 16 24  1  0  0  0  0
 18 19  1  6  0  0  0
 18 25  1  0  0  0  0
 20 21  1  1  0  0  0
 20 27  1  0  0  0  0
 22 23  1  1  0  0  0
 22 29  1  0  0  0  0
 24  2  1  1  0  0  0
 24 31  1  0  0  0  0
 25 26  1  0  0  0  0
 25 33  1  1  0  0  0
 27 28  1  1  0  0  0
 27 35  1  0  0  0  0
 29 30  1  0  0  0  0
 29 37  1  6  0  0  0
 31 32  1  6  0  0  0
 31 39  1  0  0  0  0
 33 34  1  0  0  0  0
 35 36  1  0  0  0  0
 35 41  1  1  0  0  0
 37 38  1  0  0  0  0
 39 40  1  1  0  0  0
 41 42  1  0  0  0  0
M  END
>  <CHROM.1>
-162.31927430,91.49723875,-151.95980365,175.81984120,-155.63539967,-51.84863458
-71.55448514,-82.10368379,57.86225237,38.23079029,37.07626803,-14.41198221
-2.13808467,-0.50457355,-2.45255908

>  <Name>
3c44_lig

>  <RI>
0

>  <Rbt.Current_Directory>
/home/itssahil/PROJECTS/Mol_Feturizer/New_Systems/rnas/3c44

>  <Rbt.Executable>
rbdock ($Id: //depot/dev/client3/rdock/2013.1/src/exe/rbdock.cxx#4 $)

>  <Rbt.Library>
libRbt.so (2013.1, Build901 2013/11/27)

>  <Rbt.Parameter_File>
/export/apps/rDock/src/rDock_2013.1_src/data/scripts/dock_solv.prm

>  <Rbt.Receptor>
prm/pocket_docking_7.prm

>  <SCORE>
-14.3882

>  <SCORE.INTER>
-16.0682

>  <SCORE.INTER.CONST>
1

>  <SCORE.INTER.POLAR>
-2.47267

>  <SCORE.INTER.ROT>
9

>  <SCORE.INTER.SOLV>
18.6289

>  <SCORE.INTER.VDW>
-18.2795

>  <SCORE.INTER.norm>
-0.382576

>  <SCORE.INTRA>
1.67993

>  <SCORE.INTRA.DIHEDRAL>
-0.454115

>  <SCORE.INTRA.DIHEDRAL.0>
14.8538

>  <SCORE.INTRA.POLAR>
0

>  <SCORE.INTRA.POLAR.0>
0

>  <SCORE.INTRA.REPUL>
0

>  <SCORE.INTRA.REPUL.0>
0

>  <SCORE.INTRA.SOLV>
-2.19785

>  <SCORE.INTRA.SOLV.lig_0>
-100.951

>  <SCORE.INTRA.VDW>
3.00591

>  <SCORE.INTRA.VDW.0>
-5.71388

>  <SCORE.INTRA.norm>
0.0399982

>  <SCORE.RESTR>
0

>  <SCORE.RESTR.CAVITY>
0

>  <SCORE.RESTR.norm>
0

>  <SCORE.SYSTEM>
0

>  <SCORE.SYSTEM.CONST>
0

>  <SCORE.SYSTEM.DIHEDRAL>
0

>  <SCORE.SYSTEM.SOLV>
0

>  <SCORE.SYSTEM.norm>
0

>  <SCORE.heavy>
42

>  <SCORE.norm>
-0.342577

>  <RMSD>
7.300

$$$$
3c44_lig
 OpenBabel11021811463D
libRbt.so/2013.1/901 2013/11/27
 42 45  0  0  0  0  0  0  0  0999 V2000
   39.9864   41.0396  -15.1103 C   0  0  2  0  0  0  0  0  0  0  0  0
   38.7163   41.1271  -14.4461 O   0  0  0  0  0  0  0  0  0  0  0  0
   34.9085   39.9395  -15.5771 C   0  0  2  0  0  0  0  0  0  0  0  0
   33.6520   39.3400  -16.0523 N   0  0  0  0  0  0  0  0  0  0  0  0
   37.3997   39.5923  -11.5302 C   0  0  1  0  0  0  0  0  0  0  0  0
   37.2393   40.4561   -7.3933 C   0  0  1  0  0  0  0  0  0  0  0  0
   40.8080   39.9138  -14.4736 C   0  0  2  0  0  0  0  0  0  0  0  0
   40.0590   38.6488  -14.4830 N   0  0  0  0  0  0  0  0  0  0  0  0
   35.9297   40.0252  -16.7151 C   0  0  0  0  0  0  0  0  0  0  0  0
   37.5863   38.4799  -10.4973 C   0  0  2  0  0  0  0  0  0  0  0  0
   36.3240   37.8887  -10.1831 O   0  0  0  0  0  0  0  0  0  0  0  0
   35.9967   41.1088   -6.7789 C   0  0  2  0  0  0  0  0  0  0  0  0
   35.5713   42.2081   -7.6562 N   0  0  0  0  0  0  0  0  0  0  0  0
   41.1960   40.2541  -13.0325 C   0  0  1  0  0  0  0  0  0  0  0  0
   42.0895   39.2528  -12.5362 O   0  0  0  0  0  0  0  0  0  0  0  0
   37.1468   40.7956  -16.1927 C   0  0  2  0  0  0  0  0  0  0  0  0
   38.1774   40.8457  -17.2407 N   0  0  0  0  0  0  0  0  0  0  0  0
   38.0506   39.3125   -9.3040 C   0  0  2  0  0  0  0  0  0  0  0  0
   36.9585   40.0633   -8.7483 O   0  0  0  0  0  0  0  0  0  0  0  0
   36.3004   41.6755   -5.3858 C   0  0  1  0  0  0  0  0  0  0  0  0
   36.4934   40.6146   -4.4465 O   0  0  0  0  0  0  0  0  0  0  0  0
   41.8836   41.6199  -12.9888 C   0  0  2  0  0  0  0  0  0  0  0  0
   42.1451   41.9829  -11.6306 O   0  0  0  0  0  0  0  0  0  0  0  0
   37.7549   40.1729  -14.9297 C   0  0  2  0  0  0  0  0  0  0  0  0
   39.0228   40.2601   -9.9887 C   0  0  2  0  0  0  0  0  0  0  0  0
   38.5545   40.4315  -11.3440 O   0  0  0  0  0  0  0  0  0  0  0  0
   37.5577   42.5463   -5.4087 C   0  0  2  0  0  0  0  0  0  0  0  0
   37.2894   43.7253   -6.1730 O   0  0  0  0  0  0  0  0  0  0  0  0
   40.9795   42.6692  -13.6375 C   0  0  2  0  0  0  0  0  0  0  0  0
   40.6806   42.2960  -14.9971 O   0  0  0  0  0  0  0  0  0  0  0  0
   36.7363   39.8411  -13.8412 C   0  0  2  0  0  0  0  0  0  0  0  0
   37.3573   39.0118  -12.8454 O   0  0  0  0  0  0  0  0  0  0  0  0
   40.4277   39.6540   -9.9650 C   0  0  0  0  0  0  0  0  0  0  0  0
   40.4167   38.4203  -10.6866 O   0  0  0  0  0  0  0  0  0  0  0  0
   38.7034   41.7499   -6.0387 C   0  0  1  0  0  0  0  0  0  0  0  0
   38.3263   41.3951   -7.3809 O   0  0  0  0  0  0  0  0  0  0  0  0
   41.7272   44.0048  -13.6138 C   0  0  0  0  0  0  0  0  0  0  0  0
   40.8720   45.0715  -14.1539 O   0  0  0  0  0  0  0  0  0  0  0  0
   35.5160   39.1251  -14.4321 C   0  0  1  0  0  0  0  0  0  0  0  0
   34.5380   38.9042  -13.4134 O   0  0  0  0  0  0  0  0  0  0  0  0
   40.0081   42.5464   -6.0798 C   0  0  0  0  0  0  0  0  0  0  0  0
   41.0786   41.6942   -6.6159 N   0  0  0  0  0  0  0  0  0  0  0  0
  1  2  1  1  0  0  0
  1  7  1  0  0  0  0
  1 30  1  0  0  0  0
  3  4  1  6  0  0  0
  3  9  1  0  0  0  0
  3 39  1  0  0  0  0
  5 10  1  0  0  0  0
  5 26  1  0  0  0  0
  5 32  1  6  0  0  0
  6 12  1  0  0  0  0
  6 36  1  0  0  0  0
  6 19  1  6  0  0  0
  7  8  1  1  0  0  0
  7 14  1  0  0  0  0
  9 16  1  0  0  0  0
 10 11  1  1  0  0  0
 10 18  1  0  0  0  0
 12 13  1  6  0  0  0
 12 20  1  0  0  0  0
 14 15  1  6  0  0  0
 14 22  1  0  0  0  0
 16 17  1  6  0  0  0
 16 24  1  0  0  0  0
 18 19  1  6  0  0  0
 18 25  1  0  0  0  0
 20 21  1  1  0  0  0
 20 27  1  0  0  0  0
 22 23  1  1  0  0  0
 22 29  1  0  0  0  0
 24  2  1  1  0  0  0
 24 31  1  0  0  0  0
 25 26  1  0  0  0  0
 25 33  1  6  0  0  0
 27 28  1  6  0  0  0
 27 35  1  0  0  0  0
 29 30  1  0  0  0  0
 29 37  1  6  0  0  0
 31 32  1  1  0  0  0
 31 39  1  0  0  0  0
 33 34  1  0  0  0  0
 35 36  1  0  0  0  0
 35 41  1  6  0  0  0
 37 38  1  0  0  0  0
 39 40  1  1  0  0  0
 41 42  1  0  0  0  0
M  END
>  <CHROM.1>
-82.14922185,159.35061520,-173.43709497,159.39078722,-82.64277177,61.55423678
-176.63701489,118.31525706,176.44935087,38.40380760,40.71308170,-11.35808996
-1.50265468,0.39523257,1.44101618

>  <Name>
3c44_lig

>  <RI>
224

>  <Rbt.Current_Directory>
/home/itssahil/PROJECTS/Mol_Feturizer/New_Systems/rnas/3c44

>  <Rbt.Executable>
rbdock ($Id: //depot/dev/client3/rdock/2013.1/src/exe/rbdock.cxx#4 $)

>  <Rbt.Library>
libRbt.so (2013.1, Build901 2013/11/27)

>  <Rbt.Parameter_File>
/export/apps/rDock/src/rDock_2013.1_src/data/scripts/dock_solv.prm

>  <Rbt.Receptor>
prm/pocket_docking_8.prm

>  <SCORE>
-12.1414

>  <SCORE.INTER>
-14.3576

>  <SCORE.INTER.CONST>
1

>  <SCORE.INTER.POLAR>
-3.25285

>  <SCORE.INTER.ROT>
9

>  <SCORE.INTER.SOLV>
18.2966

>  <SCORE.INTER.VDW>
-14.4278

>  <SCORE.INTER.norm>
-0.341848

>  <SCORE.INTRA>
2.19151

>  <SCORE.INTRA.DIHEDRAL>
1.07423

>  <SCORE.INTRA.DIHEDRAL.0>
14.8538

>  <SCORE.INTRA.POLAR>
0

>  <SCORE.INTRA.POLAR.0>
0

>  <SCORE.INTRA.REPUL>
0.142196

>  <SCORE.INTRA.REPUL.0>
0

>  <SCORE.INTRA.SOLV>
1.62853

>  <SCORE.INTRA.SOLV.lig_0>
-100.951

>  <SCORE.INTRA.VDW>
0.129149

>  <SCORE.INTRA.VDW.0>
-5.71388

>  <SCORE.INTRA.norm>
0.0521788

>  <SCORE.RESTR>
0.0247413

>  <SCORE.RESTR.CAVITY>
0.0247413

>  <SCORE.RESTR.norm>
0.000589078

>  <SCORE.SYSTEM>
0

>  <SCORE.SYSTEM.CONST>
0

>  <SCORE.SYSTEM.DIHEDRAL>
0

>  <SCORE.SYSTEM.SOLV>
0

>  <SCORE.SYSTEM.norm>
0

>  <SCORE.heavy>
42

>  <SCORE.norm>
-0.289081

>  <RMSD>
7.378

$$$$
3c44_lig
 OpenBabel11021811463D
libRbt.so/2013.1/901 2013/11/27
 42 45  0  0  0  0  0  0  0  0999 V2000
   36.3331   39.8464  -13.3762 C   0  0  2  0  0  0  0  0  0  0  0  0
   34.9883   39.3662  -13.5270 O   0  0  0  0  0  0  0  0  0  0  0  0
   32.9239   38.0846  -16.8864 C   0  0  2  0  0  0  0  0  0  0  0  0
   32.3688   37.5184  -18.1254 N   0  0  0  0  0  0  0  0  0  0  0  0
   35.2236   35.9487  -13.8194 C   0  0  1  0  0  0  0  0  0  0  0  0
   38.5575   34.8010  -14.4669 C   0  0  1  0  0  0  0  0  0  0  0  0
   36.7089   39.8250  -11.8909 C   0  0  2  0  0  0  0  0  0  0  0  0
   36.5018   38.4874  -11.3172 N   0  0  0  0  0  0  0  0  0  0  0  0
   34.2404   38.8142  -17.1690 C   0  0  0  0  0  0  0  0  0  0  0  0
   35.1257   34.4602  -13.4821 C   0  0  2  0  0  0  0  0  0  0  0  0
   35.3139   34.2640  -12.0793 O   0  0  0  0  0  0  0  0  0  0  0  0
   38.9983   33.6446  -15.3703 C   0  0  2  0  0  0  0  0  0  0  0  0
   39.4362   32.5324  -14.5157 N   0  0  0  0  0  0  0  0  0  0  0  0
   35.8887   40.8428  -11.0943 C   0  0  1  0  0  0  0  0  0  0  0  0
   36.3821   40.8989   -9.7524 O   0  0  0  0  0  0  0  0  0  0  0  0
   34.6774   39.5066  -15.8738 C   0  0  2  0  0  0  0  0  0  0  0  0
   35.9727   40.1690  -16.0894 N   0  0  0  0  0  0  0  0  0  0  0  0
   36.3603   33.9476  -14.2209 C   0  0  2  0  0  0  0  0  0  0  0  0
   37.5633   34.3358  -13.5373 O   0  0  0  0  0  0  0  0  0  0  0  0
   40.1640   34.0628  -16.2760 C   0  0  1  0  0  0  0  0  0  0  0  0
   39.7147   34.9803  -17.2765 O   0  0  0  0  0  0  0  0  0  0  0  0
   36.0068   42.2244  -11.7405 C   0  0  2  0  0  0  0  0  0  0  0  0
   35.1533   43.1478  -11.0596 O   0  0  0  0  0  0  0  0  0  0  0  0
   34.8067   38.5398  -14.6902 C   0  0  2  0  0  0  0  0  0  0  0  0
   36.2441   34.7212  -15.5248 C   0  0  2  0  0  0  0  0  0  0  0  0
   35.5740   35.9625  -15.2157 O   0  0  0  0  0  0  0  0  0  0  0  0
   41.2788   34.7264  -15.4657 C   0  0  2  0  0  0  0  0  0  0  0  0
   41.8803   33.7447  -14.6168 O   0  0  0  0  0  0  0  0  0  0  0  0
   35.6012   42.1374  -13.2127 C   0  0  2  0  0  0  0  0  0  0  0  0
   36.4327   41.1831  -13.9019 O   0  0  0  0  0  0  0  0  0  0  0  0
   33.6084   37.6112  -14.5049 C   0  0  2  0  0  0  0  0  0  0  0  0
   33.9511   36.5723  -13.5732 O   0  0  0  0  0  0  0  0  0  0  0  0
   35.4408   33.8996  -16.5353 C   0  0  0  0  0  0  0  0  0  0  0  0
   35.9697   34.1221  -17.8444 O   0  0  0  0  0  0  0  0  0  0  0  0
   40.6794   35.8607  -14.6303 C   0  0  1  0  0  0  0  0  0  0  0  0
   39.6939   35.3011  -13.7444 O   0  0  0  0  0  0  0  0  0  0  0  0
   35.7811   43.5280  -13.8268 C   0  0  0  0  0  0  0  0  0  0  0  0
   37.2115   43.8385  -13.9623 O   0  0  0  0  0  0  0  0  0  0  0  0
   33.1803   36.9951  -15.8421 C   0  0  1  0  0  0  0  0  0  0  0  0
   32.0053   36.2017  -15.6611 O   0  0  0  0  0  0  0  0  0  0  0  0
   41.7376   36.5921  -13.8033 C   0  0  0  0  0  0  0  0  0  0  0  0
   42.4870   37.5063  -14.6763 N   0  0  0  0  0  0  0  0  0  0  0  0
  1  2  1  1  0  0  0
  1  7  1  0  0  0  0
  1 30  1  0  0  0  0
  3  4  1  6  0  0  0
  3  9  1  0  0  0  0
  3 39  1  0  0  0  0
  5 10  1  0  0  0  0
  5 26  1  0  0  0  0
  5 32  1  6  0  0  0
  6 12  1  0  0  0  0
  6 36  1  0  0  0  0
  6 19  1  1  0  0  0
  7  8  1  1  0  0  0
  7 14  1  0  0  0  0
  9 16  1  0  0  0  0
 10 11  1  1  0  0  0
 10 18  1  0  0  0  0
 12 13  1  1  0  0  0
 12 20  1  0  0  0  0
 14 15  1  1  0  0  0
 14 22  1  0  0  0  0
 16 17  1  6  0  0  0
 16 24  1  0  0  0  0
 18 19  1  1  0  0  0
 18 25  1  0  0  0  0
 20 21  1  6  0  0  0
 20 27  1  0  0  0  0
 22 23  1  1  0  0  0
 22 29  1  0  0  0  0
 24  2  1  1  0  0  0
 24 31  1  0  0  0  0
 25 26  1  0  0  0  0
 25 33  1  6  0  0  0
 27 28  1  1  0  0  0
 27 35  1  0  0  0  0
 29 30  1  0  0  0  0
 29 37  1  6  0  0  0
 31 32  1  1  0  0  0
 31 39  1  0  0  0  0
 33 34  1  0  0  0  0
 35 36  1  0  0  0  0
 35 41  1  1  0  0  0
 37 38  1  0  0  0  0
 39 40  1  1  0  0  0
 41 42  1  0  0  0  0
M  END
>  <CHROM.1>
-141.31176122,-143.99734275,-65.55052310,-136.72277785,-79.66881460,-144.71526524
71.40422096,-46.78983649,77.61307212,36.62583078,37.40471423,-14.36810134
-2.05346160,0.28092359,-2.70807089

>  <Name>
3c44_lig

>  <RI>
0

>  <Rbt.Current_Directory>
/home/itssahil/PROJECTS/Mol_Feturizer/New_Systems/rnas/3c44

>  <Rbt.Executable>
rbdock ($Id: //depot/dev/client3/rdock/2013.1/src/exe/rbdock.cxx#4 $)

>  <Rbt.Library>
libRbt.so (2013.1, Build901 2013/11/27)

>  <Rbt.Parameter_File>
/export/apps/rDock/src/rDock_2013.1_src/data/scripts/dock_solv.prm

>  <Rbt.Receptor>
prm/pocket_docking_4.prm

>  <SCORE>
-0.0802681

>  <SCORE.INTER>
-14.2803

>  <SCORE.INTER.CONST>
1

>  <SCORE.INTER.POLAR>
-1.05228

>  <SCORE.INTER.ROT>
9

>  <SCORE.INTER.SOLV>
19.4225

>  <SCORE.INTER.VDW>
-22.0868

>  <SCORE.INTER.norm>
-0.340008

>  <SCORE.INTRA>
14.1232

>  <SCORE.INTRA.DIHEDRAL>
8.31802

>  <SCORE.INTRA.DIHEDRAL.0>
14.8538

>  <SCORE.INTRA.POLAR>
0

>  <SCORE.INTRA.POLAR.0>
0

>  <SCORE.INTRA.REPUL>
0

>  <SCORE.INTRA.REPUL.0>
0

>  <SCORE.INTRA.SOLV>
-0.553705

>  <SCORE.INTRA.SOLV.lig_0>
-100.951

>  <SCORE.INTRA.VDW>
10.241

>  <SCORE.INTRA.VDW.0>
-5.71388

>  <SCORE.INTRA.norm>
0.336266

>  <SCORE.RESTR>
0.0769216

>  <SCORE.RESTR.CAVITY>
0.0769216

>  <SCORE.RESTR.norm>
0.00183147

>  <SCORE.SYSTEM>
0

>  <SCORE.SYSTEM.CONST>
0

>  <SCORE.SYSTEM.DIHEDRAL>
0

>  <SCORE.SYSTEM.SOLV>
0

>  <SCORE.SYSTEM.norm>
0

>  <SCORE.heavy>
42

>  <SCORE.norm>
-0.00191115

>  <RMSD>
7.488

$$$$
3c44_lig
 OpenBabel11021811463D
libRbt.so/2013.1/901 2013/11/27
 42 45  0  0  0  0  0  0  0  0999 V2000
   39.4726   40.0284   -9.8663 C   0  0  2  0  0  0  0  0  0  0  0  0
   38.9622   41.1674  -10.5763 O   0  0  0  0  0  0  0  0  0  0  0  0
   37.4059   42.5061   -6.9742 C   0  0  2  0  0  0  0  0  0  0  0  0
   36.8606   43.1768   -5.7839 N   0  0  0  0  0  0  0  0  0  0  0  0
   36.4473   41.1883  -11.6356 C   0  0  1  0  0  0  0  0  0  0  0  0
   36.8086   38.7685  -15.0194 C   0  0  1  0  0  0  0  0  0  0  0  0
   39.8521   38.9387  -10.8745 C   0  0  2  0  0  0  0  0  0  0  0  0
   40.7853   39.4604  -11.8835 N   0  0  0  0  0  0  0  0  0  0  0  0
   38.7489   43.1240   -7.3740 C   0  0  0  0  0  0  0  0  0  0  0  0
   35.2187   41.0357  -12.5336 C   0  0  2  0  0  0  0  0  0  0  0  0
   34.4023   39.9605  -12.0655 O   0  0  0  0  0  0  0  0  0  0  0  0
   35.5909   38.5571  -15.9251 C   0  0  2  0  0  0  0  0  0  0  0  0
   34.6437   37.6771  -15.2268 N   0  0  0  0  0  0  0  0  0  0  0  0
   38.6150   38.3780  -11.5804 C   0  0  1  0  0  0  0  0  0  0  0  0
   38.9992   37.2621  -12.3893 O   0  0  0  0  0  0  0  0  0  0  0  0
   39.3286   42.2816   -8.5153 C   0  0  2  0  0  0  0  0  0  0  0  0
   40.5926   42.8812   -8.9689 N   0  0  0  0  0  0  0  0  0  0  0  0
   35.9007   40.6071  -13.8314 C   0  0  2  0  0  0  0  0  0  0  0  0
   36.3775   39.2549  -13.7362 O   0  0  0  0  0  0  0  0  0  0  0  0
   35.9945   37.8985  -17.2508 C   0  0  1  0  0  0  0  0  0  0  0  0
   36.7296   38.8186  -18.0618 O   0  0  0  0  0  0  0  0  0  0  0  0
   37.5852   37.9268  -10.5430 C   0  0  2  0  0  0  0  0  0  0  0  0
   36.3891   37.5068  -11.2046 O   0  0  0  0  0  0  0  0  0  0  0  0
   38.3797   42.1605   -9.7142 C   0  0  2  0  0  0  0  0  0  0  0  0
   37.0830   41.5630  -13.8519 C   0  0  2  0  0  0  0  0  0  0  0  0
   37.4061   41.8574  -12.4756 O   0  0  0  0  0  0  0  0  0  0  0  0
   36.8573   36.6589  -17.0085 C   0  0  2  0  0  0  0  0  0  0  0  0
   36.0532   35.6497  -16.3912 O   0  0  0  0  0  0  0  0  0  0  0  0
   37.2702   39.0862   -9.5965 C   0  0  2  0  0  0  0  0  0  0  0  0
   38.4750   39.5412   -8.9495 O   0  0  0  0  0  0  0  0  0  0  0  0
   36.9486   41.7757   -9.3451 C   0  0  2  0  0  0  0  0  0  0  0  0
   36.0942   41.9734  -10.4834 O   0  0  0  0  0  0  0  0  0  0  0  0
   36.6972   42.8349  -14.6102 C   0  0  0  0  0  0  0  0  0  0  0  0
   36.2988   42.4850  -15.9376 O   0  0  0  0  0  0  0  0  0  0  0  0
   38.0298   37.0383  -16.1000 C   0  0  1  0  0  0  0  0  0  0  0  0
   37.5007   37.5208  -14.8524 O   0  0  0  0  0  0  0  0  0  0  0  0
   36.2758   38.5750   -8.5509 C   0  0  0  0  0  0  0  0  0  0  0  0
   36.0881   39.5833   -7.4978 O   0  0  0  0  0  0  0  0  0  0  0  0
   36.4447   42.6094   -8.1610 C   0  0  1  0  0  0  0  0  0  0  0  0
   35.1394   42.1725   -7.7757 O   0  0  0  0  0  0  0  0  0  0  0  0
   38.9564   35.8533  -15.8255 C   0  0  0  0  0  0  0  0  0  0  0  0
   39.6636   35.4953  -17.0629 N   0  0  0  0  0  0  0  0  0  0  0  0
  1  2  1  6  0  0  0
  1  7  1  0  0  0  0
  1 30  1  0  0  0  0
  3  4  1  1  0  0  0
  3  9  1  0  0  0  0
  3 39  1  0  0  0  0
  5 10  1  0  0  0  0
  5 26  1  0  0  0  0
  5 32  1  1  0  0  0
  6 12  1  0  0  0  0
  6 36  1  0  0  0  0
  6 19  1  1  0  0  0
  7  8  1  6  0  0  0
  7 14  1  0  0  0  0
  9 16  1  0  0  0  0
 10 11  1  1  0  0  0
 10 18  1  0  0  0  0
 12 13  1  1  0  0  0
 12 20  1  0  0  0  0
 14 15  1  1  0  0  0
 14 22  1  0  0  0  0
 16 17  1  6  0  0  0
 16 24  1  0  0  0  0
 18 19  1  1  0  0  0
 18 25  1  0  0  0  0
 20 21  1  6  0  0  0
 20 27  1  0  0  0  0
 22 23  1  6  0  0  0
 22 29  1  0  0  0  0
 24  2  1  6  0  0  0
 24 31  1  0  0  0  0
 25 26  1  0  0  0  0
 25 33  1  6  0  0  0
 27 28  1  1  0  0  0
 27 35  1  0  0  0  0
 29 30  1  0  0  0  0
 29 37  1  1  0  0  0
 31 32  1  6  0  0  0
 31 39  1  0  0  0  0
 33 34  1  0  0  0  0
 35 36  1  0  0  0  0
 35 41  1  1  0  0  0
 37 38  1  0  0  0  0
 39 40  1  1  0  0  0
 41 42  1  0  0  0  0
M  END
>  <CHROM.1>
170.62407915,157.29160449,-70.50678225,169.97595049,42.50665653,-58.38570284
171.63165786,60.50466466,68.80060289,37.29299365,39.81626407,-12.06119646
-1.47002167,0.90409739,-2.14105287

>  <Name>
3c44_lig

>  <RI>
224

>  <Rbt.Current_Directory>
/home/itssahil/PROJECTS/Mol_Feturizer/New_Systems/rnas/3c44

>  <Rbt.Executable>
rbdock ($Id: //depot/dev/client3/rdock/2013.1/src/exe/rbdock.cxx#4 $)

>  <Rbt.Library>
libRbt.so (2013.1, Build901 2013/11/27)

>  <Rbt.Parameter_File>
/export/apps/rDock/src/rDock_2013.1_src/data/scripts/dock_solv.prm

>  <Rbt.Receptor>
prm/pocket_docking_8.prm

>  <SCORE>
-7.19655

>  <SCORE.INTER>
-7.56194

>  <SCORE.INTER.CONST>
1

>  <SCORE.INTER.POLAR>
-1.09624

>  <SCORE.INTER.ROT>
9

>  <SCORE.INTER.SOLV>
11.2562

>  <SCORE.INTER.VDW>
-14.7392

>  <SCORE.INTER.norm>
-0.180046

>  <SCORE.INTRA>
0.365391

>  <SCORE.INTRA.DIHEDRAL>
-8.83248

>  <SCORE.INTRA.DIHEDRAL.0>
14.8538

>  <SCORE.INTRA.POLAR>
0

>  <SCORE.INTRA.POLAR.0>
0

>  <SCORE.INTRA.REPUL>
0.0584192

>  <SCORE.INTRA.REPUL.0>
0

>  <SCORE.INTRA.SOLV>
0.00738068

>  <SCORE.INTRA.SOLV.lig_0>
-100.951

>  <SCORE.INTRA.VDW>
4.48584

>  <SCORE.INTRA.VDW.0>
-5.71388

>  <SCORE.INTRA.norm>
0.0086998

>  <SCORE.RESTR>
0

>  <SCORE.RESTR.CAVITY>
0

>  <SCORE.RESTR.norm>
0

>  <SCORE.SYSTEM>
0

>  <SCORE.SYSTEM.CONST>
0

>  <SCORE.SYSTEM.DIHEDRAL>
0

>  <SCORE.SYSTEM.SOLV>
0

>  <SCORE.SYSTEM.norm>
0

>  <SCORE.heavy>
42

>  <SCORE.norm>
-0.171346

>  <RMSD>
7.516

$$$$
3c44_lig
 OpenBabel11021811463D
libRbt.so/2013.1/901 2013/11/27
 42 45  0  0  0  0  0  0  0  0999 V2000
   38.6373   38.8695  -19.5181 C   0  0  2  0  0  0  0  0  0  0  0  0
   39.0731   39.2945  -18.2176 O   0  0  0  0  0  0  0  0  0  0  0  0
   40.9664   42.7672  -16.9746 C   0  0  2  0  0  0  0  0  0  0  0  0
   41.4965   44.1023  -16.6577 N   0  0  0  0  0  0  0  0  0  0  0  0
   37.4756   41.0805  -14.8133 C   0  0  1  0  0  0  0  0  0  0  0  0
   36.0918   41.4587  -10.8535 C   0  0  1  0  0  0  0  0  0  0  0  0
   37.4392   37.9270  -19.3615 C   0  0  2  0  0  0  0  0  0  0  0  0
   36.3745   38.5601  -18.5700 N   0  0  0  0  0  0  0  0  0  0  0  0
   40.9574   42.5356  -18.4883 C   0  0  0  0  0  0  0  0  0  0  0  0
   35.9823   40.9268  -14.5211 C   0  0  2  0  0  0  0  0  0  0  0  0
   35.3276   42.1907  -14.6467 O   0  0  0  0  0  0  0  0  0  0  0  0
   36.2600   42.7617  -10.0650 C   0  0  2  0  0  0  0  0  0  0  0  0
   37.6131   43.2790  -10.3118 N   0  0  0  0  0  0  0  0  0  0  0  0
   37.8480   36.6139  -18.6894 C   0  0  1  0  0  0  0  0  0  0  0  0
   36.7394   35.7096  -18.7089 O   0  0  0  0  0  0  0  0  0  0  0  0
   40.5447   41.0806  -18.7352 C   0  0  2  0  0  0  0  0  0  0  0  0
   40.4649   40.8366  -20.1833 N   0  0  0  0  0  0  0  0  0  0  0  0
   36.0472   40.5508  -13.0422 C   0  0  2  0  0  0  0  0  0  0  0  0
   36.3983   41.6901  -12.2397 O   0  0  0  0  0  0  0  0  0  0  0  0
   36.0871   42.5240   -8.5592 C   0  0  1  0  0  0  0  0  0  0  0  0
   34.7192   42.2422   -8.2521 O   0  0  0  0  0  0  0  0  0  0  0  0
   39.0278   35.9924  -19.4391 C   0  0  2  0  0  0  0  0  0  0  0  0
   39.4767   34.8252  -18.7454 O   0  0  0  0  0  0  0  0  0  0  0  0
   39.1963   40.7225  -18.0978 C   0  0  2  0  0  0  0  0  0  0  0  0
   37.2037   39.5638  -13.0577 C   0  0  2  0  0  0  0  0  0  0  0  0
   38.0750   39.9582  -14.1397 O   0  0  0  0  0  0  0  0  0  0  0  0
   36.9486   41.3523   -8.0852 C   0  0  2  0  0  0  0  0  0  0  0  0
   38.3269   41.7216   -8.1862 O   0  0  0  0  0  0  0  0  0  0  0  0
   40.1682   37.0075  -19.5308 C   0  0  2  0  0  0  0  0  0  0  0  0
   39.7173   38.2028  -20.1979 O   0  0  0  0  0  0  0  0  0  0  0  0
   39.0590   41.1508  -16.6382 C   0  0  2  0  0  0  0  0  0  0  0  0
   37.6846   41.0344  -16.2356 O   0  0  0  0  0  0  0  0  0  0  0  0
   36.6635   38.1487  -13.2747 C   0  0  0  0  0  0  0  0  0  0  0  0
   35.8412   37.7867  -12.1631 O   0  0  0  0  0  0  0  0  0  0  0  0
   36.6562   40.1324   -8.9628 C   0  0  1  0  0  0  0  0  0  0  0  0
   36.9820   40.4632  -10.3244 O   0  0  0  0  0  0  0  0  0  0  0  0
   41.3033   36.3598  -20.3279 C   0  0  0  0  0  0  0  0  0  0  0  0
   42.4902   37.2269  -20.3110 O   0  0  0  0  0  0  0  0  0  0  0  0
   39.5418   42.5928  -16.4423 C   0  0  1  0  0  0  0  0  0  0  0  0
   39.4885   42.9424  -15.0573 O   0  0  0  0  0  0  0  0  0  0  0  0
   37.4659   38.9065   -8.5385 C   0  0  0  0  0  0  0  0  0  0  0  0
   37.1067   38.5427   -7.1608 N   0  0  0  0  0  0  0  0  0  0  0  0
  1  2  1  1  0  0  0
  1  7  1  0  0  0  0
  1 30  1  0  0  0  0
  3  4  1  6  0  0  0
  3  9  1  0  0  0  0
  3 39  1  0  0  0  0
  5 10  1  0  0  0  0
  5 26  1  0  0  0  0
  5 32  1  6  0  0  0
  6 12  1  0  0  0  0
  6 36  1  0  0  0  0
  6 19  1  6  0  0  0
  7  8  1  1  0  0  0
  7 14  1  0  0  0  0
  9 16  1  0  0  0  0
 10 11  1  1  0  0  0
 10 18  1  0  0  0  0
 12 13  1  1  0  0  0
 12 20  1  0  0  0  0
 14 15  1  6  0  0  0
 14 22  1  0  0  0  0
 16 17  1  6  0  0  0
 16 24  1  0  0  0  0
 18 19  1  1  0  0  0
 18 25  1  0  0  0  0
 20 21  1  6  0  0  0
 20 27  1  0  0  0  0
 22 23  1  1  0  0  0
 22 29  1  0  0  0  0
 24  2  1  1  0  0  0
 24 31  1  0  0  0  0
 25 26  1  0  0  0  0
 25 33  1  6  0  0  0
 27 28  1  6  0  0  0
 27 35  1  0  0  0  0
 29 30  1  0  0  0  0
 29 37  1  6  0  0  0
 31 32  1  6  0  0  0
 31 39  1  0  0  0  0
 33 34  1  0  0  0  0
 35 36  1  0  0  0  0
 35 41  1  1  0  0  0
 37 38  1  0  0  0  0
 39 40  1  1  0  0  0
 41 42  1  0  0  0  0
M  END
>  <CHROM.1>
-128.45781754,-179.19426709,-170.77487404,163.41100242,-80.35217063,-64.03571096
-173.19841515,165.07606259,61.42357059,38.11240410,40.01408137,-14.90465769
0.90110849,-1.08369098,-2.46595376

>  <Name>
3c44_lig

>  <RI>
224

>  <Rbt.Current_Directory>
/home/itssahil/PROJECTS/Mol_Feturizer/New_Systems/rnas/3c44

>  <Rbt.Executable>
rbdock ($Id: //depot/dev/client3/rdock/2013.1/src/exe/rbdock.cxx#4 $)

>  <Rbt.Library>
libRbt.so (2013.1, Build901 2013/11/27)

>  <Rbt.Parameter_File>
/export/apps/rDock/src/rDock_2013.1_src/data/scripts/dock_solv.prm

>  <Rbt.Receptor>
prm/pocket_docking_8.prm

>  <SCORE>
-9.35299

>  <SCORE.INTER>
-9.13521

>  <SCORE.INTER.CONST>
1

>  <SCORE.INTER.POLAR>
-1.18384

>  <SCORE.INTER.ROT>
9

>  <SCORE.INTER.SOLV>
12.804

>  <SCORE.INTER.VDW>
-16.012

>  <SCORE.INTER.norm>
-0.217505

>  <SCORE.INTRA>
-0.217779

>  <SCORE.INTRA.DIHEDRAL>
-2.82035

>  <SCORE.INTRA.DIHEDRAL.0>
14.8538

>  <SCORE.INTRA.POLAR>
0

>  <SCORE.INTRA.POLAR.0>
0

>  <SCORE.INTRA.REPUL>
0.00506745

>  <SCORE.INTRA.REPUL.0>
0

>  <SCORE.INTRA.SOLV>
-2.2087

>  <SCORE.INTRA.SOLV.lig_0>
-100.951

>  <SCORE.INTRA.VDW>
2.27141

>  <SCORE.INTRA.VDW.0>
-5.71388

>  <SCORE.INTRA.norm>
-0.00518522

>  <SCORE.RESTR>
0

>  <SCORE.RESTR.CAVITY>
0

>  <SCORE.RESTR.norm>
0

>  <SCORE.SYSTEM>
0

>  <SCORE.SYSTEM.CONST>
0

>  <SCORE.SYSTEM.DIHEDRAL>
0

>  <SCORE.SYSTEM.SOLV>
0

>  <SCORE.SYSTEM.norm>
0

>  <SCORE.heavy>
42

>  <SCORE.norm>
-0.22269

>  <RMSD>
7.545

$$$$
3c44_lig
 OpenBabel11021811463D
libRbt.so/2013.1/901 2013/11/27
 42 45  0  0  0  0  0  0  0  0999 V2000
   40.5171   41.0451  -15.2451 C   0  0  2  0  0  0  0  0  0  0  0  0
   39.3013   40.4918  -15.7719 O   0  0  0  0  0  0  0  0  0  0  0  0
   35.3789   40.8815  -14.4866 C   0  0  2  0  0  0  0  0  0  0  0  0
   34.0503   40.9122  -13.8558 N   0  0  0  0  0  0  0  0  0  0  0  0
   38.6277   43.8880  -13.6394 C   0  0  1  0  0  0  0  0  0  0  0  0
   38.7166   48.0451  -12.8861 C   0  0  1  0  0  0  0  0  0  0  0  0
   41.4960   41.2918  -16.3978 C   0  0  2  0  0  0  0  0  0  0  0  0
   40.8801   42.1279  -17.4383 N   0  0  0  0  0  0  0  0  0  0  0  0
   35.8846   39.4412  -14.6098 C   0  0  0  0  0  0  0  0  0  0  0  0
   39.6206   44.4677  -12.6308 C   0  0  2  0  0  0  0  0  0  0  0  0
   39.0409   44.4766  -11.3248 O   0  0  0  0  0  0  0  0  0  0  0  0
   39.6645   48.4598  -11.7559 C   0  0  2  0  0  0  0  0  0  0  0  0
   39.1071   47.9761  -10.4853 N   0  0  0  0  0  0  0  0  0  0  0  0
   41.9606   39.9750  -17.0250 C   0  0  1  0  0  0  0  0  0  0  0  0
   42.9872   40.2463  -17.9841 O   0  0  0  0  0  0  0  0  0  0  0  0
   37.1910   39.4724  -15.4101 C   0  0  2  0  0  0  0  0  0  0  0  0
   37.7407   38.1110  -15.4971 N   0  0  0  0  0  0  0  0  0  0  0  0
   39.6994   45.9041  -13.1442 C   0  0  2  0  0  0  0  0  0  0  0  0
   38.4954   46.6248  -12.8342 O   0  0  0  0  0  0  0  0  0  0  0  0
   39.8079   49.9858  -11.6854 C   0  0  1  0  0  0  0  0  0  0  0  0
   40.5558   50.4691  -12.8042 O   0  0  0  0  0  0  0  0  0  0  0  0
   42.5082   39.0475  -15.9387 C   0  0  2  0  0  0  0  0  0  0  0  0
   42.8386   37.7794  -16.5114 O   0  0  0  0  0  0  0  0  0  0  0  0
   38.2502   40.3955  -14.7949 C   0  0  2  0  0  0  0  0  0  0  0  0
   39.7737   45.6589  -14.6430 C   0  0  2  0  0  0  0  0  0  0  0  0
   39.0643   44.4278  -14.9006 O   0  0  0  0  0  0  0  0  0  0  0  0
   38.4383   50.6668  -11.6785 C   0  0  2  0  0  0  0  0  0  0  0  0
   37.7752   50.3589  -10.4491 O   0  0  0  0  0  0  0  0  0  0  0  0
   41.4543   38.8603  -14.8463 C   0  0  2  0  0  0  0  0  0  0  0  0
   41.0878   40.1363  -14.2852 O   0  0  0  0  0  0  0  0  0  0  0  0
   37.7336   41.7847  -14.4261 C   0  0  2  0  0  0  0  0  0  0  0  0
   38.7072   42.4523  -13.6069 O   0  0  0  0  0  0  0  0  0  0  0  0
   41.2391   45.5486  -15.0696 C   0  0  0  0  0  0  0  0  0  0  0  0
   41.9074   46.7755  -14.7677 O   0  0  0  0  0  0  0  0  0  0  0  0
   37.6223   50.1557  -12.8688 C   0  0  1  0  0  0  0  0  0  0  0  0
   37.4643   48.7322  -12.7340 O   0  0  0  0  0  0  0  0  0  0  0  0
   42.0629   37.9673  -13.7621 C   0  0  0  0  0  0  0  0  0  0  0  0
   41.0762   37.7177  -12.7014 O   0  0  0  0  0  0  0  0  0  0  0  0
   36.3969   41.6925  -13.6808 C   0  0  1  0  0  0  0  0  0  0  0  0
   35.8884   43.0035  -13.4246 O   0  0  0  0  0  0  0  0  0  0  0  0
   36.2409   50.8070  -12.9460 C   0  0  0  0  0  0  0  0  0  0  0  0
   35.6211   50.4753  -14.2365 N   0  0  0  0  0  0  0  0  0  0  0  0
  1  2  1  6  0  0  0
  1  7  1  0  0  0  0
  1 30  1  0  0  0  0
  3  4  1  1  0  0  0
  3  9  1  0  0  0  0
  3 39  1  0  0  0  0
  5 10  1  0  0  0  0
  5 26  1  0  0  0  0
  5 32  1  6  0  0  0
  6 12  1  0  0  0  0
  6 36  1  0  0  0  0
  6 19  1  1  0  0  0
  7  8  1  6  0  0  0
  7 14  1  0  0  0  0
  9 16  1  0  0  0  0
 10 11  1  1  0  0  0
 10 18  1  0  0  0  0
 12 13  1  1  0  0  0
 12 20  1  0  0  0  0
 14 15  1  6  0  0  0
 14 22  1  0  0  0  0
 16 17  1  1  0  0  0
 16 24  1  0  0  0  0
 18 19  1  6  0  0  0
 18 25  1  0  0  0  0
 20 21  1  6  0  0  0
 20 27  1  0  0  0  0
 22 23  1  6  0  0  0
 22 29  1  0  0  0  0
 24  2  1  6  0  0  0
 24 31  1  0  0  0  0
 25 26  1  0  0  0  0
 25 33  1  1  0  0  0
 27 28  1  1  0  0  0
 27 35  1  0  0  0  0
 29 30  1  0  0  0  0
 29 37  1  1  0  0  0
 31 32  1  1  0  0  0
 31 39  1  0  0  0  0
 33 34  1  0  0  0  0
 35 36  1  0  0  0  0
 35 41  1  1  0  0  0
 37 38  1  0  0  0  0
 39 40  1  6  0  0  0
 41 42  1  0  0  0  0
M  END
>  <CHROM.1>
-171.91826324,174.62673178,-66.98220829,160.24513772,-165.61255597,-60.94481314
-178.24089222,155.90466026,169.11682356,39.16530750,43.78222984,-14.01948263
-1.37845240,0.24485241,0.24538265

>  <Name>
3c44_lig

>  <RI>
224

>  <Rbt.Current_Directory>
/home/itssahil/PROJECTS/Mol_Feturizer/New_Systems/rnas/3c44

>  <Rbt.Executable>
rbdock ($Id: //depot/dev/client3/rdock/2013.1/src/exe/rbdock.cxx#4 $)

>  <Rbt.Library>
libRbt.so (2013.1, Build901 2013/11/27)

>  <Rbt.Parameter_File>
/export/apps/rDock/src/rDock_2013.1_src/data/scripts/dock_solv.prm

>  <Rbt.Receptor>
prm/pocket_docking_8.prm

>  <SCORE>
-13.9275

>  <SCORE.INTER>
-9.55899

>  <SCORE.INTER.CONST>
1

>  <SCORE.INTER.POLAR>
-1

>  <SCORE.INTER.ROT>
9

>  <SCORE.INTER.SOLV>
17.1211

>  <SCORE.INTER.VDW>
-18.3464

>  <SCORE.INTER.norm>
-0.227595

>  <SCORE.INTRA>
-4.36852

>  <SCORE.INTRA.DIHEDRAL>
-8.16178

>  <SCORE.INTRA.DIHEDRAL.0>
14.8538

>  <SCORE.INTRA.POLAR>
0

>  <SCORE.INTRA.POLAR.0>
0

>  <SCORE.INTRA.REPUL>
0

>  <SCORE.INTRA.REPUL.0>
0

>  <SCORE.INTRA.SOLV>
-3.87125

>  <SCORE.INTRA.SOLV.lig_0>
-100.951

>  <SCORE.INTRA.VDW>
1.648

>  <SCORE.INTRA.VDW.0>
-5.71388

>  <SCORE.INTRA.norm>
-0.104012

>  <SCORE.RESTR>
0

>  <SCORE.RESTR.CAVITY>
0

>  <SCORE.RESTR.norm>
0

>  <SCORE.SYSTEM>
0

>  <SCORE.SYSTEM.CONST>
0

>  <SCORE.SYSTEM.DIHEDRAL>
0

>  <SCORE.SYSTEM.SOLV>
0

>  <SCORE.SYSTEM.norm>
0

>  <SCORE.heavy>
42

>  <SCORE.norm>
-0.331607

>  <RMSD>
7.565

$$$$
3c44_lig
 OpenBabel11021811463D
libRbt.so/2013.1/901 2013/11/27
 42 45  0  0  0  0  0  0  0  0999 V2000
   39.7562   40.4301  -11.8225 C   0  0  2  0  0  0  0  0  0  0  0  0
   40.6776   39.4597  -12.3432 O   0  0  0  0  0  0  0  0  0  0  0  0
   42.5960   39.5978  -16.0161 C   0  0  2  0  0  0  0  0  0  0  0  0
   43.0889   39.5835  -17.4020 N   0  0  0  0  0  0  0  0  0  0  0  0
   40.4302   43.0089  -13.7119 C   0  0  1  0  0  0  0  0  0  0  0  0
   40.2875   46.8928  -14.3280 C   0  0  1  0  0  0  0  0  0  0  0  0
   39.8231   40.4134  -10.2918 C   0  0  2  0  0  0  0  0  0  0  0  0
   41.2028   40.6135   -9.8254 N   0  0  0  0  0  0  0  0  0  0  0  0
   42.0085   38.2350  -15.6382 C   0  0  0  0  0  0  0  0  0  0  0  0
   39.2507   43.9713  -13.8588 C   0  0  2  0  0  0  0  0  0  0  0  0
   39.2057   44.4887  -15.1900 O   0  0  0  0  0  0  0  0  0  0  0  0
   41.4620   47.7000  -14.8908 C   0  0  2  0  0  0  0  0  0  0  0  0
   42.2926   48.1515  -13.7659 N   0  0  0  0  0  0  0  0  0  0  0  0
   39.2905   39.0947   -9.7256 C   0  0  1  0  0  0  0  0  0  0  0  0
   39.2245   39.1868   -8.2992 O   0  0  0  0  0  0  0  0  0  0  0  0
   41.6610   38.2743  -14.1463 C   0  0  2  0  0  0  0  0  0  0  0  0
   41.0360   37.0006  -13.7588 N   0  0  0  0  0  0  0  0  0  0  0  0
   39.7060   45.0818  -12.9142 C   0  0  2  0  0  0  0  0  0  0  0  0
   40.7858   45.8339  -13.4917 O   0  0  0  0  0  0  0  0  0  0  0  0
   40.9686   48.9280  -15.6670 C   0  0  1  0  0  0  0  0  0  0  0  0
   40.3527   48.5285  -16.8942 O   0  0  0  0  0  0  0  0  0  0  0  0
   37.8942   38.8159  -10.2849 C   0  0  2  0  0  0  0  0  0  0  0  0
   37.4464   37.5324   -9.8411 O   0  0  0  0  0  0  0  0  0  0  0  0
   40.7125   39.4227  -13.7806 C   0  0  2  0  0  0  0  0  0  0  0  0
   40.2273   44.2572  -11.7479 C   0  0  2  0  0  0  0  0  0  0  0  0
   40.6988   43.0078  -12.2975 O   0  0  0  0  0  0  0  0  0  0  0  0
   39.9550   49.7266  -14.8457 C   0  0  2  0  0  0  0  0  0  0  0  0
   40.6265   50.3139  -13.7275 O   0  0  0  0  0  0  0  0  0  0  0  0
   37.9398   38.8453  -11.8134 C   0  0  2  0  0  0  0  0  0  0  0  0
   38.4231   40.1233  -12.2719 O   0  0  0  0  0  0  0  0  0  0  0  0
   41.1275   40.7816  -14.3408 C   0  0  2  0  0  0  0  0  0  0  0  0
   40.0409   41.7099  -14.1912 O   0  0  0  0  0  0  0  0  0  0  0  0
   39.0972   44.0240  -10.7429 C   0  0  0  0  0  0  0  0  0  0  0  0
   38.7015   45.2791  -10.1851 O   0  0  0  0  0  0  0  0  0  0  0  0
   38.8470   48.7837  -14.3692 C   0  0  1  0  0  0  0  0  0  0  0  0
   39.4417   47.7584  -13.5541 O   0  0  0  0  0  0  0  0  0  0  0  0
   36.5163   38.6100  -12.3249 C   0  0  0  0  0  0  0  0  0  0  0  0
   36.5172   38.5108  -13.7916 O   0  0  0  0  0  0  0  0  0  0  0  0
   41.5200   40.6686  -15.8187 C   0  0  1  0  0  0  0  0  0  0  0  0
   41.9892   41.9309  -16.2979 O   0  0  0  0  0  0  0  0  0  0  0  0
   37.7773   49.5124  -13.5547 C   0  0  0  0  0  0  0  0  0  0  0  0
   38.3842   50.0472  -12.3278 N   0  0  0  0  0  0  0  0  0  0  0  0
  1  2  1  6  0  0  0
  1  7  1  0  0  0  0
  1 30  1  0  0  0  0
  3  4  1  6  0  0  0
  3  9  1  0  0  0  0
  3 39  1  0  0  0  0
  5 10  1  0  0  0  0
  5 26  1  0  0  0  0
  5 32  1  1  0  0  0
  6 12  1  0  0  0  0
  6 36  1  0  0  0  0
  6 19  1  1  0  0  0
  7  8  1  6  0  0  0
  7 14  1  0  0  0  0
  9 16  1  0  0  0  0
 10 11  1  6  0  0  0
 10 18  1  0  0  0  0
 12 13  1  1  0  0  0
 12 20  1  0  0  0  0
 14 15  1  1  0  0  0
 14 22  1  0  0  0  0
 16 17  1  6  0  0  0
 16 24  1  0  0  0  0
 18 19  1  6  0  0  0
 18 25  1  0  0  0  0
 20 21  1  6  0  0  0
 20 27  1  0  0  0  0
 22 23  1  6  0  0  0
 22 29  1  0  0  0  0
 24  2  1  1  0  0  0
 24 31  1  0  0  0  0
 25 26  1  0  0  0  0
 25 33  1  1  0  0  0
 27 28  1  1  0  0  0
 27 35  1  0  0  0  0
 29 30  1  0  0  0  0
 29 37  1  6  0  0  0
 31 32  1  6  0  0  0
 31 39  1  0  0  0  0
 33 34  1  0  0  0  0
 35 36  1  0  0  0  0
 35 41  1  1  0  0  0
 37 38  1  0  0  0  0
 39 40  1  1  0  0  0
 41 42  1  0  0  0  0
M  END
>  <CHROM.1>
-178.54190725,168.92464499,178.22148748,86.37350499,-175.99703133,-64.70149439
-175.08101544,135.99469342,-63.65973020,39.95089863,42.96562731,-13.22562353
1.64874611,-1.02053790,3.01589871

>  <Name>
3c44_lig

>  <RI>
224

>  <Rbt.Current_Directory>
/home/itssahil/PROJECTS/Mol_Feturizer/New_Systems/rnas/3c44

>  <Rbt.Executable>
rbdock ($Id: //depot/dev/client3/rdock/2013.1/src/exe/rbdock.cxx#4 $)

>  <Rbt.Library>
libRbt.so (2013.1, Build901 2013/11/27)

>  <Rbt.Parameter_File>
/export/apps/rDock/src/rDock_2013.1_src/data/scripts/dock_solv.prm

>  <Rbt.Receptor>
prm/pocket_docking_8.prm

>  <SCORE>
-9.01493

>  <SCORE.INTER>
-7.61323

>  <SCORE.INTER.CONST>
1

>  <SCORE.INTER.POLAR>
-0.828202

>  <SCORE.INTER.ROT>
9

>  <SCORE.INTER.SOLV>
12.0509

>  <SCORE.INTER.VDW>
-15.9318

>  <SCORE.INTER.norm>
-0.181267

>  <SCORE.INTRA>
-1.40169

>  <SCORE.INTRA.DIHEDRAL>
-4.80349

>  <SCORE.INTRA.DIHEDRAL.0>
14.8538

>  <SCORE.INTRA.POLAR>
0

>  <SCORE.INTRA.POLAR.0>
0

>  <SCORE.INTRA.REPUL>
0

>  <SCORE.INTRA.REPUL.0>
0

>  <SCORE.INTRA.SOLV>
-2.2375

>  <SCORE.INTRA.SOLV.lig_0>
-100.951

>  <SCORE.INTRA.VDW>
2.1188

>  <SCORE.INTRA.VDW.0>
-5.71388

>  <SCORE.INTRA.norm>
-0.0333737

>  <SCORE.RESTR>
0

>  <SCORE.RESTR.CAVITY>
0

>  <SCORE.RESTR.norm>
0

>  <SCORE.SYSTEM>
0

>  <SCORE.SYSTEM.CONST>
0

>  <SCORE.SYSTEM.DIHEDRAL>
0

>  <SCORE.SYSTEM.SOLV>
0

>  <SCORE.SYSTEM.norm>
0

>  <SCORE.heavy>
42

>  <SCORE.norm>
-0.214641

>  <RMSD>
7.603

$$$$
3c44_lig
 OpenBabel11021811463D
libRbt.so/2013.1/901 2013/11/27
 42 45  0  0  0  0  0  0  0  0999 V2000
   36.3500   41.9364  -13.2836 C   0  0  2  0  0  0  0  0  0  0  0  0
   37.0245   40.9590  -12.4765 O   0  0  0  0  0  0  0  0  0  0  0  0
   36.8671   40.3699   -8.3755 C   0  0  2  0  0  0  0  0  0  0  0  0
   36.5979   40.1659   -6.9438 N   0  0  0  0  0  0  0  0  0  0  0  0
   37.0116   37.9184  -12.6233 C   0  0  1  0  0  0  0  0  0  0  0  0
   39.5530   36.9322  -15.6829 C   0  0  1  0  0  0  0  0  0  0  0  0
   35.1669   41.2696  -13.9933 C   0  0  2  0  0  0  0  0  0  0  0  0
   34.2824   40.6050  -13.0253 N   0  0  0  0  0  0  0  0  0  0  0  0
   36.1768   41.6410   -8.8786 C   0  0  0  0  0  0  0  0  0  0  0  0
   38.3156   37.2535  -12.1799 C   0  0  2  0  0  0  0  0  0  0  0  0
   39.2854   38.2506  -11.8526 O   0  0  0  0  0  0  0  0  0  0  0  0
   40.7557   36.0101  -15.4574 C   0  0  2  0  0  0  0  0  0  0  0  0
   41.8273   36.7947  -14.8288 N   0  0  0  0  0  0  0  0  0  0  0  0
   35.6427   40.2420  -15.0231 C   0  0  1  0  0  0  0  0  0  0  0  0
   34.5174   39.7646  -15.7670 O   0  0  0  0  0  0  0  0  0  0  0  0
   36.6248   41.8737  -10.3254 C   0  0  2  0  0  0  0  0  0  0  0  0
   35.9336   43.0545  -10.8647 N   0  0  0  0  0  0  0  0  0  0  0  0
   38.7214   36.5837  -13.4912 C   0  0  2  0  0  0  0  0  0  0  0  0
   39.1844   37.5576  -14.4411 O   0  0  0  0  0  0  0  0  0  0  0  0
   41.2725   35.4394  -16.7846 C   0  0  1  0  0  0  0  0  0  0  0  0
   40.3459   34.4868  -17.3128 O   0  0  0  0  0  0  0  0  0  0  0  0
   36.6482   40.8899  -15.9767 C   0  0  2  0  0  0  0  0  0  0  0  0
   37.1723   39.9010  -16.8667 O   0  0  0  0  0  0  0  0  0  0  0  0
   36.3452   40.6753  -11.2408 C   0  0  2  0  0  0  0  0  0  0  0  0
   37.3807   36.0281  -13.9450 C   0  0  2  0  0  0  0  0  0  0  0  0
   36.3640   36.9084  -13.4190 O   0  0  0  0  0  0  0  0  0  0  0  0
   41.4786   36.5491  -17.8169 C   0  0  2  0  0  0  0  0  0  0  0  0
   42.5626   37.3800  -17.3920 O   0  0  0  0  0  0  0  0  0  0  0  0
   37.7887   41.5142  -15.1712 C   0  0  2  0  0  0  0  0  0  0  0  0
   37.2683   42.4885  -14.2454 O   0  0  0  0  0  0  0  0  0  0  0  0
   36.8033   39.3329  -10.6744 C   0  0  2  0  0  0  0  0  0  0  0  0
   36.2420   38.2686  -11.4599 O   0  0  0  0  0  0  0  0  0  0  0  0
   37.2092   34.6062  -13.4061 C   0  0  0  0  0  0  0  0  0  0  0  0
   38.2869   33.7944  -13.8778 O   0  0  0  0  0  0  0  0  0  0  0  0
   40.1902   37.3680  -17.9315 C   0  0  1  0  0  0  0  0  0  0  0  0
   39.8999   37.9414  -16.6445 O   0  0  0  0  0  0  0  0  0  0  0  0
   38.7409   42.1896  -16.1614 C   0  0  0  0  0  0  0  0  0  0  0  0
   39.9734   42.6023  -15.4746 O   0  0  0  0  0  0  0  0  0  0  0  0
   36.3783   39.1825   -9.2089 C   0  0  1  0  0  0  0  0  0  0  0  0
   36.8929   37.9613   -8.6734 O   0  0  0  0  0  0  0  0  0  0  0  0
   40.3073   38.4900  -18.9639 C   0  0  0  0  0  0  0  0  0  0  0  0
   40.2204   37.9161  -20.3140 N   0  0  0  0  0  0  0  0  0  0  0  0
  1  2  1  6  0  0  0
  1  7  1  0  0  0  0
  1 30  1  0  0  0  0
  3  4  1  1  0  0  0
  3  9  1  0  0  0  0
  3 39  1  0  0  0  0
  5 10  1  0  0  0  0
  5 26  1  0  0  0  0
  5 32  1  1  0  0  0
  6 12  1  0  0  0  0
  6 36  1  0  0  0  0
  6 19  1  1  0  0  0
  7  8  1  1  0  0  0
  7 14  1  0  0  0  0
  9 16  1  0  0  0  0
 10 11  1  6  0  0  0
 10 18  1  0  0  0  0
 12 13  1  6  0  0  0
 12 20  1  0  0  0  0
 14 15  1  6  0  0  0
 14 22  1  0  0  0  0
 16 17  1  6  0  0  0
 16 24  1  0  0  0  0
 18 19  1  6  0  0  0
 18 25  1  0  0  0  0
 20 21  1  6  0  0  0
 20 27  1  0  0  0  0
 22 23  1  6  0  0  0
 22 29  1  0  0  0  0
 24  2  1  6  0  0  0
 24 31  1  0  0  0  0
 25 26  1  0  0  0  0
 25 33  1  1  0  0  0
 27 28  1  1  0  0  0
 27 35  1  0  0  0  0
 29 30  1  0  0  0  0
 29 37  1  6  0  0  0
 31 32  1  6  0  0  0
 31 39  1  0  0  0  0
 33 34  1  0  0  0  0
 35 36  1  0  0  0  0
 35 41  1  6  0  0  0
 37 38  1  0  0  0  0
 39 40  1  1  0  0  0
 41 42  1  0  0  0  0
M  END
>  <CHROM.1>
-77.90583554,69.23487409,-64.93079833,-179.33439105,-75.69120607,-58.33708881
-170.11379744,85.83811756,75.75852897,38.00541911,38.81839880,-13.89483214
2.86241748,-1.05903661,2.32303980

>  <Name>
3c44_lig

>  <RI>
0

>  <Rbt.Current_Directory>
/home/itssahil/PROJECTS/Mol_Feturizer/New_Systems/rnas/3c44

>  <Rbt.Executable>
rbdock ($Id: //depot/dev/client3/rdock/2013.1/src/exe/rbdock.cxx#4 $)

>  <Rbt.Library>
libRbt.so (2013.1, Build901 2013/11/27)

>  <Rbt.Parameter_File>
/export/apps/rDock/src/rDock_2013.1_src/data/scripts/dock_solv.prm

>  <Rbt.Receptor>
prm/pocket_docking_7.prm

>  <SCORE>
-21.4915

>  <SCORE.INTER>
-20.4313

>  <SCORE.INTER.CONST>
1

>  <SCORE.INTER.POLAR>
-3.69022

>  <SCORE.INTER.ROT>
9

>  <SCORE.INTER.SOLV>
13.863

>  <SCORE.INTER.VDW>
-15.5412

>  <SCORE.INTER.norm>
-0.48646

>  <SCORE.INTRA>
-1.07532

>  <SCORE.INTRA.DIHEDRAL>
-7.21012

>  <SCORE.INTRA.DIHEDRAL.0>
14.8538

>  <SCORE.INTRA.POLAR>
0

>  <SCORE.INTRA.POLAR.0>
0

>  <SCORE.INTRA.REPUL>
0.0234775

>  <SCORE.INTRA.REPUL.0>
0

>  <SCORE.INTRA.SOLV>
0.566297

>  <SCORE.INTRA.SOLV.lig_0>
-100.951

>  <SCORE.INTRA.VDW>
2.1292

>  <SCORE.INTRA.VDW.0>
-5.71388

>  <SCORE.INTRA.norm>
-0.025603

>  <SCORE.RESTR>
0.0152087

>  <SCORE.RESTR.CAVITY>
0.0152087

>  <SCORE.RESTR.norm>
0.000362113

>  <SCORE.SYSTEM>
0

>  <SCORE.SYSTEM.CONST>
0

>  <SCORE.SYSTEM.DIHEDRAL>
0

>  <SCORE.SYSTEM.SOLV>
0

>  <SCORE.SYSTEM.norm>
0

>  <SCORE.heavy>
42

>  <SCORE.norm>
-0.511701

>  <RMSD>
7.723

$$$$
3c44_lig
 OpenBabel11021811463D
libRbt.so/2013.1/901 2013/11/27
 42 45  0  0  0  0  0  0  0  0999 V2000
   39.3309   41.4489  -10.8650 C   0  0  2  0  0  0  0  0  0  0  0  0
   37.9987   40.9304  -10.9999 O   0  0  0  0  0  0  0  0  0  0  0  0
   35.5794   40.4686  -14.3351 C   0  0  2  0  0  0  0  0  0  0  0  0
   34.7245   40.5190  -15.5311 N   0  0  0  0  0  0  0  0  0  0  0  0
   39.1853   42.7878  -13.8477 C   0  0  1  0  0  0  0  0  0  0  0  0
   40.6683   46.3077  -12.6929 C   0  0  1  0  0  0  0  0  0  0  0  0
   40.0576   40.6801   -9.7565 C   0  0  2  0  0  0  0  0  0  0  0  0
   40.0204   39.2328  -10.0116 N   0  0  0  0  0  0  0  0  0  0  0  0
   34.9818   41.3164  -13.2085 C   0  0  0  0  0  0  0  0  0  0  0  0
   40.6202   43.3139  -13.7892 C   0  0  2  0  0  0  0  0  0  0  0  0
   41.0254   43.4767  -12.4287 O   0  0  0  0  0  0  0  0  0  0  0  0
   39.9159   47.0792  -11.6036 C   0  0  2  0  0  0  0  0  0  0  0  0
   38.8849   47.9029  -12.2500 N   0  0  0  0  0  0  0  0  0  0  0  0
   39.4382   40.9619   -8.3853 C   0  0  1  0  0  0  0  0  0  0  0  0
   40.2426   40.3530   -7.3707 O   0  0  0  0  0  0  0  0  0  0  0  0
   35.8341   41.0937  -11.9546 C   0  0  2  0  0  0  0  0  0  0  0  0
   35.3265   41.9408  -10.8647 N   0  0  0  0  0  0  0  0  0  0  0  0
   40.4133   44.6941  -14.4098 C   0  0  2  0  0  0  0  0  0  0  0  0
   39.7313   45.5687  -13.4960 O   0  0  0  0  0  0  0  0  0  0  0  0
   40.8636   47.9964  -10.8196 C   0  0  1  0  0  0  0  0  0  0  0  0
   41.7377   47.2224   -9.9938 O   0  0  0  0  0  0  0  0  0  0  0  0
   39.3707   42.4715   -8.1466 C   0  0  2  0  0  0  0  0  0  0  0  0
   38.6924   42.7332   -6.9152 O   0  0  0  0  0  0  0  0  0  0  0  0
   37.3193   41.4072  -12.1746 C   0  0  2  0  0  0  0  0  0  0  0  0
   39.4880   44.3430  -15.5642 C   0  0  2  0  0  0  0  0  0  0  0  0
   38.7253   43.1882  -15.1518 O   0  0  0  0  0  0  0  0  0  0  0  0
   41.7095   48.8503  -11.7656 C   0  0  2  0  0  0  0  0  0  0  0  0
   40.8557   49.7830  -12.4344 O   0  0  0  0  0  0  0  0  0  0  0  0
   38.6202   43.1391   -9.3000 C   0  0  2  0  0  0  0  0  0  0  0  0
   39.2756   42.8530  -10.5513 O   0  0  0  0  0  0  0  0  0  0  0  0
   37.9146   40.7744  -13.4307 C   0  0  2  0  0  0  0  0  0  0  0  0
   39.2011   41.3579  -13.6934 O   0  0  0  0  0  0  0  0  0  0  0  0
   40.3213   44.0352  -16.8101 C   0  0  0  0  0  0  0  0  0  0  0  0
   41.0375   42.8156  -16.6039 O   0  0  0  0  0  0  0  0  0  0  0  0
   42.3997   47.9346  -12.7800 C   0  0  1  0  0  0  0  0  0  0  0  0
   41.3866   47.2341  -13.5232 O   0  0  0  0  0  0  0  0  0  0  0  0
   38.6202   44.6480   -9.0422 C   0  0  0  0  0  0  0  0  0  0  0  0
   39.9964   45.1643   -9.0683 O   0  0  0  0  0  0  0  0  0  0  0  0
   36.9909   40.9779  -14.6375 C   0  0  1  0  0  0  0  0  0  0  0  0
   37.5227   40.3028  -15.7796 O   0  0  0  0  0  0  0  0  0  0  0  0
   43.2857   48.7129  -13.7535 C   0  0  0  0  0  0  0  0  0  0  0  0
   42.4385   49.5443  -14.6198 N   0  0  0  0  0  0  0  0  0  0  0  0
  1  2  1  1  0  0  0
  1  7  1  0  0  0  0
  1 30  1  0  0  0  0
  3  4  1  6  0  0  0
  3  9  1  0  0  0  0
  3 39  1  0  0  0  0
  5 10  1  0  0  0  0
  5 26  1  0  0  0  0
  5 32  1  6  0  0  0
  6 12  1  0  0  0  0
  6 36  1  0  0  0  0
  6 19  1  6  0  0  0
  7  8  1  6  0  0  0
  7 14  1  0  0  0  0
  9 16  1  0  0  0  0
 10 11  1  1  0  0  0
 10 18  1  0  0  0  0
 12 13  1  6  0  0  0
 12 20  1  0  0  0  0
 14 15  1  1  0  0  0
 14 22  1  0  0  0  0
 16 17  1  1  0  0  0
 16 24  1  0  0  0  0
 18 19  1  1  0  0  0
 18 25  1  0  0  0  0
 20 21  1  6  0  0  0
 20 27  1  0  0  0  0
 22 23  1  1  0  0  0
 22 29  1  0  0  0  0
 24  2  1  1  0  0  0
 24 31  1  0  0  0  0
 25 26  1  0  0  0  0
 25 33  1  6  0  0  0
 27 28  1  6  0  0  0
 27 35  1  0  0  0  0
 29 30  1  0  0  0  0
 29 37  1  1  0  0  0
 31 32  1  6  0  0  0
 31 39  1  0  0  0  0
 33 34  1  0  0  0  0
 35 36  1  0  0  0  0
 35 41  1  6  0  0  0
 37 38  1  0  0  0  0
 39 40  1  6  0  0  0
 41 42  1  0  0  0  0
M  END
>  <CHROM.1>
-168.92666437,166.72034226,-172.17755875,91.41647808,-164.34674638,68.51021742
63.68519134,-57.24348226,-67.65473057,39.35275243,43.76075093,-12.23932706
-2.85530466,-1.03959549,-1.34857895

>  <Name>
3c44_lig

>  <RI>
0

>  <Rbt.Current_Directory>
/home/itssahil/PROJECTS/Mol_Feturizer/New_Systems/rnas/3c44

>  <Rbt.Executable>
rbdock ($Id: //depot/dev/client3/rdock/2013.1/src/exe/rbdock.cxx#4 $)

>  <Rbt.Library>
libRbt.so (2013.1, Build901 2013/11/27)

>  <Rbt.Parameter_File>
/export/apps/rDock/src/rDock_2013.1_src/data/scripts/dock_solv.prm

>  <Rbt.Receptor>
prm/pocket_docking_7.prm

>  <SCORE>
-12.1702

>  <SCORE.INTER>
-9.36102

>  <SCORE.INTER.CONST>
1

>  <SCORE.INTER.POLAR>
-1.46628

>  <SCORE.INTER.ROT>
9

>  <SCORE.INTER.SOLV>
15.8062

>  <SCORE.INTER.VDW>
-16.2218

>  <SCORE.INTER.norm>
-0.222881

>  <SCORE.INTRA>
-2.80921

>  <SCORE.INTRA.DIHEDRAL>
-7.4534

>  <SCORE.INTRA.DIHEDRAL.0>
14.8538

>  <SCORE.INTRA.POLAR>
0

>  <SCORE.INTRA.POLAR.0>
0

>  <SCORE.INTRA.REPUL>
0

>  <SCORE.INTRA.REPUL.0>
0

>  <SCORE.INTRA.SOLV>
-0.513535

>  <SCORE.INTRA.SOLV.lig_0>
-100.951

>  <SCORE.INTRA.VDW>
1.17425

>  <SCORE.INTRA.VDW.0>
-5.71388

>  <SCORE.INTRA.norm>
-0.0668861

>  <SCORE.RESTR>
0

>  <SCORE.RESTR.CAVITY>
0

>  <SCORE.RESTR.norm>
0

>  <SCORE.SYSTEM>
0

>  <SCORE.SYSTEM.CONST>
0

>  <SCORE.SYSTEM.DIHEDRAL>
0

>  <SCORE.SYSTEM.SOLV>
0

>  <SCORE.SYSTEM.norm>
0

>  <SCORE.heavy>
42

>  <SCORE.norm>
-0.289767

>  <RMSD>
7.823

$$$$
3c44_lig
 OpenBabel11021811463D
libRbt.so/2013.1/901 2013/11/27
 42 45  0  0  0  0  0  0  0  0999 V2000
   38.6765   39.5863   -9.5298 C   0  0  2  0  0  0  0  0  0  0  0  0
   37.5082   40.3738   -9.8068 O   0  0  0  0  0  0  0  0  0  0  0  0
   35.9496   42.5270  -12.9886 C   0  0  2  0  0  0  0  0  0  0  0  0
   35.5345   43.1805  -14.2395 N   0  0  0  0  0  0  0  0  0  0  0  0
   36.0444   38.3730  -12.9409 C   0  0  1  0  0  0  0  0  0  0  0  0
   37.8347   36.9489  -16.4646 C   0  0  1  0  0  0  0  0  0  0  0  0
   38.3580   38.5964   -8.4044 C   0  0  2  0  0  0  0  0  0  0  0  0
   37.1772   37.7867   -8.7374 N   0  0  0  0  0  0  0  0  0  0  0  0
   37.4585   42.6788  -12.7754 C   0  0  0  0  0  0  0  0  0  0  0  0
   37.5674   38.2436  -12.9953 C   0  0  2  0  0  0  0  0  0  0  0  0
   38.1465   39.4737  -13.4348 O   0  0  0  0  0  0  0  0  0  0  0  0
   37.7278   37.7041  -17.7935 C   0  0  2  0  0  0  0  0  0  0  0  0
   36.3523   38.2018  -17.9321 N   0  0  0  0  0  0  0  0  0  0  0  0
   38.1094   39.3213   -7.0793 C   0  0  1  0  0  0  0  0  0  0  0  0
   37.9745   38.3556   -6.0321 O   0  0  0  0  0  0  0  0  0  0  0  0
   37.7927   42.1165  -11.3897 C   0  0  2  0  0  0  0  0  0  0  0  0
   39.2455   42.1890  -11.1728 N   0  0  0  0  0  0  0  0  0  0  0  0
   37.6977   37.2110  -14.1132 C   0  0  2  0  0  0  0  0  0  0  0  0
   37.3967   37.7985  -15.3897 O   0  0  0  0  0  0  0  0  0  0  0  0
   38.0442   36.7844  -18.9801 C   0  0  1  0  0  0  0  0  0  0  0  0
   39.4378   36.4649  -19.0065 O   0  0  0  0  0  0  0  0  0  0  0  0
   39.2832   40.2517   -6.7684 C   0  0  2  0  0  0  0  0  0  0  0  0
   38.9977   41.0075   -5.5884 O   0  0  0  0  0  0  0  0  0  0  0  0
   37.3364   40.6639  -11.2051 C   0  0  2  0  0  0  0  0  0  0  0  0
   36.5917   36.2421  -13.7258 C   0  0  2  0  0  0  0  0  0  0  0  0
   35.5800   37.0142  -13.0434 O   0  0  0  0  0  0  0  0  0  0  0  0
   37.2434   35.4838  -18.8963 C   0  0  2  0  0  0  0  0  0  0  0  0
   35.8580   35.7807  -19.0928 O   0  0  0  0  0  0  0  0  0  0  0  0
   39.5096   41.2012   -7.9459 C   0  0  2  0  0  0  0  0  0  0  0  0
   39.7642   40.4495   -9.1489 O   0  0  0  0  0  0  0  0  0  0  0  0
   35.8942   40.4002  -11.6330 C   0  0  2  0  0  0  0  0  0  0  0  0
   35.6676   38.9825  -11.6938 O   0  0  0  0  0  0  0  0  0  0  0  0
   37.1629   35.1551  -12.8127 C   0  0  0  0  0  0  0  0  0  0  0  0
   38.1125   34.3792  -13.5469 O   0  0  0  0  0  0  0  0  0  0  0  0
   37.4646   34.8509  -17.5199 C   0  0  1  0  0  0  0  0  0  0  0  0
   37.0087   35.7748  -16.5160 O   0  0  0  0  0  0  0  0  0  0  0  0
   40.7196   42.0769   -7.6102 C   0  0  0  0  0  0  0  0  0  0  0  0
   40.8449   43.1626   -8.5933 O   0  0  0  0  0  0  0  0  0  0  0  0
   35.6021   41.0362  -12.9972 C   0  0  1  0  0  0  0  0  0  0  0  0
   34.2257   40.8544  -13.3369 O   0  0  0  0  0  0  0  0  0  0  0  0
   36.7113   33.5294  -17.3626 C   0  0  0  0  0  0  0  0  0  0  0  0
   35.2654   33.7889  -17.4046 N   0  0  0  0  0  0  0  0  0  0  0  0
  1  2  1  1  0  0  0
  1  7  1  0  0  0  0
  1 30  1  0  0  0  0
  3  4  1  6  0  0  0
  3  9  1  0  0  0  0
  3 39  1  0  0  0  0
  5 10  1  0  0  0  0
  5 26  1  0  0  0  0
  5 32  1  1  0  0  0
  6 12  1  0  0  0  0
  6 36  1  0  0  0  0
  6 19  1  1  0  0  0
  7  8  1  6  0  0  0
  7 14  1  0  0  0  0
  9 16  1  0  0  0  0
 10 11  1  6  0  0  0
 10 18  1  0  0  0  0
 12 13  1  6  0  0  0
 12 20  1  0  0  0  0
 14 15  1  1  0  0  0
 14 22  1  0  0  0  0
 16 17  1  6  0  0  0
 16 24  1  0  0  0  0
 18 19  1  6  0  0  0
 18 25  1  0  0  0  0
 20 21  1  1  0  0  0
 20 27  1  0  0  0  0
 22 23  1  1  0  0  0
 22 29  1  0  0  0  0
 24  2  1  1  0  0  0
 24 31  1  0  0  0  0
 25 26  1  0  0  0  0
 25 33  1  1  0  0  0
 27 28  1  1  0  0  0
 27 35  1  0  0  0  0
 29 30  1  0  0  0  0
 29 37  1  1  0  0  0
 31 32  1  6  0  0  0
 31 39  1  0  0  0  0
 33 34  1  0  0  0  0
 35 36  1  0  0  0  0
 35 41  1  6  0  0  0
 37 38  1  0  0  0  0
 39 40  1  1  0  0  0
 41 42  1  0  0  0  0
M  END
>  <CHROM.1>
-142.67223623,76.04451511,-170.05110107,165.50171177,-102.60263776,-64.95789445
-170.17425142,-85.44627169,-65.28141077,37.50190860,38.70391943,-12.78425842
-0.75118574,1.34781123,-2.87337557

>  <Name>
3c44_lig

>  <RI>
0

>  <Rbt.Current_Directory>
/home/itssahil/PROJECTS/Mol_Feturizer/New_Systems/rnas/3c44

>  <Rbt.Executable>
rbdock ($Id: //depot/dev/client3/rdock/2013.1/src/exe/rbdock.cxx#4 $)

>  <Rbt.Library>
libRbt.so (2013.1, Build901 2013/11/27)

>  <Rbt.Parameter_File>
/export/apps/rDock/src/rDock_2013.1_src/data/scripts/dock_solv.prm

>  <Rbt.Receptor>
prm/pocket_docking_7.prm

>  <SCORE>
-14.1183

>  <SCORE.INTER>
-19.3779

>  <SCORE.INTER.CONST>
1

>  <SCORE.INTER.POLAR>
-3.71239

>  <SCORE.INTER.ROT>
9

>  <SCORE.INTER.SOLV>
16.5261

>  <SCORE.INTER.VDW>
-15.6526

>  <SCORE.INTER.norm>
-0.461379

>  <SCORE.INTRA>
5.25958

>  <SCORE.INTRA.DIHEDRAL>
2.12786

>  <SCORE.INTRA.DIHEDRAL.0>
14.8538

>  <SCORE.INTRA.POLAR>
0

>  <SCORE.INTRA.POLAR.0>
0

>  <SCORE.INTRA.REPUL>
0

>  <SCORE.INTRA.REPUL.0>
0

>  <SCORE.INTRA.SOLV>
1.99017

>  <SCORE.INTRA.SOLV.lig_0>
-100.951

>  <SCORE.INTRA.VDW>
3.20056

>  <SCORE.INTRA.VDW.0>
-5.71388

>  <SCORE.INTRA.norm>
0.125228

>  <SCORE.RESTR>
0

>  <SCORE.RESTR.CAVITY>
0

>  <SCORE.RESTR.norm>
0

>  <SCORE.SYSTEM>
0

>  <SCORE.SYSTEM.CONST>
0

>  <SCORE.SYSTEM.DIHEDRAL>
0

>  <SCORE.SYSTEM.SOLV>
0

>  <SCORE.SYSTEM.norm>
0

>  <SCORE.heavy>
42

>  <SCORE.norm>
-0.33615

>  <RMSD>
7.951

$$$$
3c44_lig
 OpenBabel11021811463D
libRbt.so/2013.1/901 2013/11/27
 42 45  0  0  0  0  0  0  0  0999 V2000
   39.7272   40.9435   -9.3857 C   0  0  2  0  0  0  0  0  0  0  0  0
   39.0804   41.6287  -10.4691 O   0  0  0  0  0  0  0  0  0  0  0  0
   38.9677   45.7536  -10.8712 C   0  0  2  0  0  0  0  0  0  0  0  0
   39.1414   47.2055  -11.0316 N   0  0  0  0  0  0  0  0  0  0  0  0
   38.9966   41.4744  -13.3245 C   0  0  1  0  0  0  0  0  0  0  0  0
   36.4050   39.0747  -15.1955 C   0  0  1  0  0  0  0  0  0  0  0  0
   40.4943   39.7391   -9.9415 C   0  0  2  0  0  0  0  0  0  0  0  0
   41.4223   40.1537  -11.0035 N   0  0  0  0  0  0  0  0  0  0  0  0
   39.8103   45.2352   -9.7022 C   0  0  0  0  0  0  0  0  0  0  0  0
   38.7639   41.1953  -14.8100 C   0  0  2  0  0  0  0  0  0  0  0  0
   37.5042   41.7336  -15.2165 O   0  0  0  0  0  0  0  0  0  0  0  0
   35.1876   38.3732  -14.5841 C   0  0  2  0  0  0  0  0  0  0  0  0
   35.6438   37.1318  -13.9439 N   0  0  0  0  0  0  0  0  0  0  0  0
   39.5397   38.6796  -10.4977 C   0  0  1  0  0  0  0  0  0  0  0  0
   40.2874   37.5139  -10.8572 O   0  0  0  0  0  0  0  0  0  0  0  0
   39.4628   43.7572   -9.4960 C   0  0  2  0  0  0  0  0  0  0  0  0
   40.2989   43.2066   -8.4186 N   0  0  0  0  0  0  0  0  0  0  0  0
   38.6590   39.6720  -14.7719 C   0  0  2  0  0  0  0  0  0  0  0  0
   37.4132   39.2596  -14.1863 O   0  0  0  0  0  0  0  0  0  0  0  0
   34.1513   38.0242  -15.6603 C   0  0  1  0  0  0  0  0  0  0  0  0
   33.5162   39.2102  -16.1450 O   0  0  0  0  0  0  0  0  0  0  0  0
   38.4981   38.3124   -9.4391 C   0  0  2  0  0  0  0  0  0  0  0  0
   37.5439   37.4057   -9.9981 O   0  0  0  0  0  0  0  0  0  0  0  0
   39.6632   42.9112  -10.7596 C   0  0  2  0  0  0  0  0  0  0  0  0
   39.8010   39.3392  -13.8248 C   0  0  2  0  0  0  0  0  0  0  0  0
   39.9412   40.4627  -12.9284 O   0  0  0  0  0  0  0  0  0  0  0  0
   34.8049   37.3001  -16.8385 C   0  0  2  0  0  0  0  0  0  0  0  0
   35.2465   36.0116  -16.4017 O   0  0  0  0  0  0  0  0  0  0  0  0
   37.7864   39.5786   -8.9603 C   0  0  2  0  0  0  0  0  0  0  0  0
   38.7430   40.5149   -8.4262 O   0  0  0  0  0  0  0  0  0  0  0  0
   39.0406   43.5087  -12.0198 C   0  0  2  0  0  0  0  0  0  0  0  0
   39.5280   42.8022  -13.1721 O   0  0  0  0  0  0  0  0  0  0  0  0
   41.0826   39.1152  -14.6303 C   0  0  0  0  0  0  0  0  0  0  0  0
   41.4771   40.3494  -15.2336 O   0  0  0  0  0  0  0  0  0  0  0  0
   35.9902   38.1308  -17.3377 C   0  0  1  0  0  0  0  0  0  0  0  0
   36.9339   38.2693  -16.2609 O   0  0  0  0  0  0  0  0  0  0  0  0
   36.7914   39.1685   -7.8716 C   0  0  0  0  0  0  0  0  0  0  0  0
   36.0037   38.0105   -8.3183 O   0  0  0  0  0  0  0  0  0  0  0  0
   39.3729   45.0007  -12.1409 C   0  0  1  0  0  0  0  0  0  0  0  0
   38.7082   45.5590  -13.2765 O   0  0  0  0  0  0  0  0  0  0  0  0
   36.6881   37.4828  -18.5341 C   0  0  0  0  0  0  0  0  0  0  0  0
   37.2832   36.2065  -18.1140 N   0  0  0  0  0  0  0  0  0  0  0  0
  1  2  1  6  0  0  0
  1  7  1  0  0  0  0
  1 30  1  0  0  0  0
  3  4  1  6  0  0  0
  3  9  1  0  0  0  0
  3 39  1  0  0  0  0
  5 10  1  0  0  0  0
  5 26  1  0  0  0  0
  5 32  1  6  0  0  0
  6 12  1  0  0  0  0
  6 36  1  0  0  0  0
  6 19  1  1  0  0  0
  7  8  1  6  0  0  0
  7 14  1  0  0  0  0
  9 16  1  0  0  0  0
 10 11  1  1  0  0  0
 10 18  1  0  0  0  0
 12 13  1  6  0  0  0
 12 20  1  0  0  0  0
 14 15  1  1  0  0  0
 14 22  1  0  0  0  0
 16 17  1  1  0  0  0
 16 24  1  0  0  0  0
 18 19  1  1  0  0  0
 18 25  1  0  0  0  0
 20 21  1  6  0  0  0
 20 27  1  0  0  0  0
 22 23  1  6  0  0  0
 22 29  1  0  0  0  0
 24  2  1  1  0  0  0
 24 31  1  0  0  0  0
 25 26  1  0  0  0  0
 25 33  1  6  0  0  0
 27 28  1  1  0  0  0
 27 35  1  0  0  0  0
 29 30  1  0  0  0  0
 29 37  1  1  0  0  0
 31 32  1  6  0  0  0
 31 39  1  0  0  0  0
 33 34  1  0  0  0  0
 35 36  1  0  0  0  0
 35 41  1  6  0  0  0
 37 38  1  0  0  0  0
 39 40  1  6  0  0  0
 41 42  1  0  0  0  0
M  END
>  <CHROM.1>
-109.90676781,142.40953728,168.72728511,92.05112140,-62.55683442,66.61969761
-47.73128718,72.37891644,-64.55252655,38.21474871,40.31570609,-12.72671975
0.29170831,1.15624237,2.11190777

>  <Name>
3c44_lig

>  <RI>
0

>  <Rbt.Current_Directory>
/home/itssahil/PROJECTS/Mol_Feturizer/New_Systems/rnas/3c44

>  <Rbt.Executable>
rbdock ($Id: //depot/dev/client3/rdock/2013.1/src/exe/rbdock.cxx#4 $)

>  <Rbt.Library>
libRbt.so (2013.1, Build901 2013/11/27)

>  <Rbt.Parameter_File>
/export/apps/rDock/src/rDock_2013.1_src/data/scripts/dock_solv.prm

>  <Rbt.Receptor>
prm/pocket_docking_5.prm

>  <SCORE>
-5.25267

>  <SCORE.INTER>
-14.6931

>  <SCORE.INTER.CONST>
1

>  <SCORE.INTER.POLAR>
-2.52931

>  <SCORE.INTER.ROT>
9

>  <SCORE.INTER.SOLV>
12.8607

>  <SCORE.INTER.VDW>
-15.2513

>  <SCORE.INTER.norm>
-0.349837

>  <SCORE.INTRA>
9.44048

>  <SCORE.INTRA.DIHEDRAL>
2.96229

>  <SCORE.INTRA.DIHEDRAL.0>
14.8538

>  <SCORE.INTRA.POLAR>
0

>  <SCORE.INTRA.POLAR.0>
0

>  <SCORE.INTRA.REPUL>
0

>  <SCORE.INTRA.REPUL.0>
0

>  <SCORE.INTRA.SOLV>
3.64093

>  <SCORE.INTRA.SOLV.lig_0>
-100.951

>  <SCORE.INTRA.VDW>
6.13887

>  <SCORE.INTRA.VDW.0>
-5.71388

>  <SCORE.INTRA.norm>
0.224773

>  <SCORE.RESTR>
0

>  <SCORE.RESTR.CAVITY>
0

>  <SCORE.RESTR.norm>
0

>  <SCORE.SYSTEM>
0

>  <SCORE.SYSTEM.CONST>
0

>  <SCORE.SYSTEM.DIHEDRAL>
0

>  <SCORE.SYSTEM.SOLV>
0

>  <SCORE.SYSTEM.norm>
0

>  <SCORE.heavy>
42

>  <SCORE.norm>
-0.125063

>  <RMSD>
7.990

$$$$
3c44_lig
 OpenBabel11021811463D
libRbt.so/2013.1/901 2013/11/27
 42 45  0  0  0  0  0  0  0  0999 V2000
   36.7335   42.2629   -8.7636 C   0  0  2  0  0  0  0  0  0  0  0  0
   37.7902   41.5940   -9.4691 O   0  0  0  0  0  0  0  0  0  0  0  0
   35.7811   42.5195  -12.9758 C   0  0  2  0  0  0  0  0  0  0  0  0
   35.2262   42.7421  -14.3198 N   0  0  0  0  0  0  0  0  0  0  0  0
   37.0985   38.6756  -11.7737 C   0  0  1  0  0  0  0  0  0  0  0  0
   39.5206   36.4456  -14.1210 C   0  0  1  0  0  0  0  0  0  0  0  0
   37.3438   43.1672   -7.6876 C   0  0  2  0  0  0  0  0  0  0  0  0
   38.3259   44.0903   -8.2744 N   0  0  0  0  0  0  0  0  0  0  0  0
   37.2220   43.0320  -12.8951 C   0  0  0  0  0  0  0  0  0  0  0  0
   37.5731   37.3927  -11.0895 C   0  0  2  0  0  0  0  0  0  0  0  0
   38.7333   37.6610  -10.2998 O   0  0  0  0  0  0  0  0  0  0  0  0
   40.8847   35.7564  -14.0109 C   0  0  2  0  0  0  0  0  0  0  0  0
   41.8734   36.7558  -13.5832 N   0  0  0  0  0  0  0  0  0  0  0  0
   38.0241   42.3454   -6.5899 C   0  0  1  0  0  0  0  0  0  0  0  0
   38.4369   43.2190   -5.5346 O   0  0  0  0  0  0  0  0  0  0  0  0
   37.6789   42.9119  -11.4374 C   0  0  2  0  0  0  0  0  0  0  0  0
   39.0824   43.3384  -11.3310 N   0  0  0  0  0  0  0  0  0  0  0  0
   37.9894   36.5855  -12.3176 C   0  0  2  0  0  0  0  0  0  0  0  0
   39.2083   37.0997  -12.8785 O   0  0  0  0  0  0  0  0  0  0  0  0
   41.3212   35.1736  -15.3614 C   0  0  1  0  0  0  0  0  0  0  0  0
   40.5161   34.0413  -15.7001 O   0  0  0  0  0  0  0  0  0  0  0  0
   37.0470   41.3049   -6.0395 C   0  0  2  0  0  0  0  0  0  0  0  0
   37.7185   40.4684   -5.0938 O   0  0  0  0  0  0  0  0  0  0  0  0
   37.5510   41.4874  -10.8834 C   0  0  2  0  0  0  0  0  0  0  0  0
   36.8307   36.8889  -13.2544 C   0  0  2  0  0  0  0  0  0  0  0  0
   36.3443   38.2030  -12.9052 O   0  0  0  0  0  0  0  0  0  0  0  0
   41.1981   36.2150  -16.4750 C   0  0  2  0  0  0  0  0  0  0  0  0
   42.1651   37.2454  -16.2531 O   0  0  0  0  0  0  0  0  0  0  0  0
   36.5062   40.4524   -7.1883 C   0  0  2  0  0  0  0  0  0  0  0  0
   35.8571   41.2894   -8.1658 O   0  0  0  0  0  0  0  0  0  0  0  0
   36.1982   40.8301  -11.1492 C   0  0  2  0  0  0  0  0  0  0  0  0
   36.2854   39.4263  -10.8550 O   0  0  0  0  0  0  0  0  0  0  0  0
   35.7386   35.8324  -13.0734 C   0  0  0  0  0  0  0  0  0  0  0  0
   35.0521   36.0757  -11.8436 O   0  0  0  0  0  0  0  0  0  0  0  0
   39.7824   36.7975  -16.4576 C   0  0  1  0  0  0  0  0  0  0  0  0
   39.5614   37.4171  -15.1783 O   0  0  0  0  0  0  0  0  0  0  0  0
   35.5002   39.4614   -6.5974 C   0  0  0  0  0  0  0  0  0  0  0  0
   36.1895   38.2329   -6.1771 O   0  0  0  0  0  0  0  0  0  0  0  0
   35.7665   41.0340  -12.6063 C   0  0  1  0  0  0  0  0  0  0  0  0
   34.4606   40.4898  -12.8100 O   0  0  0  0  0  0  0  0  0  0  0  0
   39.5702   37.8361  -17.5597 C   0  0  0  0  0  0  0  0  0  0  0  0
   38.1687   38.2781  -17.5446 N   0  0  0  0  0  0  0  0  0  0  0  0
  1  2  1  1  0  0  0
  1  7  1  0  0  0  0
  1 30  1  0  0  0  0
  3  4  1  6  0  0  0
  3  9  1  0  0  0  0
  3 39  1  0  0  0  0
  5 10  1  0  0  0  0
  5 26  1  0  0  0  0
  5 32  1  1  0  0  0
  6 12  1  0  0  0  0
  6 36  1  0  0  0  0
  6 19  1  1  0  0  0
  7  8  1  6  0  0  0
  7 14  1  0  0  0  0
  9 16  1  0  0  0  0
 10 11  1  1  0  0  0
 10 18  1  0  0  0  0
 12 13  1  6  0  0  0
 12 20  1  0  0  0  0
 14 15  1  1  0  0  0
 14 22  1  0  0  0  0
 16 17  1  6  0  0  0
 16 24  1  0  0  0  0
 18 19  1  6  0  0  0
 18 25  1  0  0  0  0
 20 21  1  6  0  0  0
 20 27  1  0  0  0  0
 22 23  1  1  0  0  0
 22 29  1  0  0  0  0
 24  2  1  1  0  0  0
 24 31  1  0  0  0  0
 25 26  1  0  0  0  0
 25 33  1  1  0  0  0
 27 28  1  1  0  0  0
 27 35  1  0  0  0  0
 29 30  1  0  0  0  0
 29 37  1  1  0  0  0
 31 32  1  6  0  0  0
 31 39  1  0  0  0  0
 33 34  1  0  0  0  0
 35 36  1  0  0  0  0
 35 41  1  6  0  0  0
 37 38  1  0  0  0  0
 39 40  1  1  0  0  0
 41 42  1  0  0  0  0
M  END
>  <CHROM.1>
-140.64006892,157.43622758,-120.46297444,-173.25616611,70.05261558,74.43382324
-88.79127355,-69.43236313,175.92783062,37.84548705,39.30620467,-11.60073370
2.56699805,-1.22373708,1.94288308

>  <Name>
3c44_lig

>  <RI>
224

>  <Rbt.Current_Directory>
/home/itssahil/PROJECTS/Mol_Feturizer/New_Systems/rnas/3c44

>  <Rbt.Executable>
rbdock ($Id: //depot/dev/client3/rdock/2013.1/src/exe/rbdock.cxx#4 $)

>  <Rbt.Library>
libRbt.so (2013.1, Build901 2013/11/27)

>  <Rbt.Parameter_File>
/export/apps/rDock/src/rDock_2013.1_src/data/scripts/dock_solv.prm

>  <Rbt.Receptor>
prm/pocket_docking_8.prm

>  <SCORE>
-12.1236

>  <SCORE.INTER>
-16.852

>  <SCORE.INTER.CONST>
1

>  <SCORE.INTER.POLAR>
-2.88117

>  <SCORE.INTER.ROT>
9

>  <SCORE.INTER.SOLV>
16.0054

>  <SCORE.INTER.VDW>
-16.5659

>  <SCORE.INTER.norm>
-0.401237

>  <SCORE.INTRA>
4.72835

>  <SCORE.INTRA.DIHEDRAL>
4.66272

>  <SCORE.INTRA.DIHEDRAL.0>
14.8538

>  <SCORE.INTRA.POLAR>
0

>  <SCORE.INTRA.POLAR.0>
0

>  <SCORE.INTRA.REPUL>
0

>  <SCORE.INTRA.REPUL.0>
0

>  <SCORE.INTRA.SOLV>
-2.48823

>  <SCORE.INTRA.SOLV.lig_0>
-100.951

>  <SCORE.INTRA.VDW>
3.6411

>  <SCORE.INTRA.VDW.0>
-5.71388

>  <SCORE.INTRA.norm>
0.11258

>  <SCORE.RESTR>
0

>  <SCORE.RESTR.CAVITY>
0

>  <SCORE.RESTR.norm>
0

>  <SCORE.SYSTEM>
0

>  <SCORE.SYSTEM.CONST>
0

>  <SCORE.SYSTEM.DIHEDRAL>
0

>  <SCORE.SYSTEM.SOLV>
0

>  <SCORE.SYSTEM.norm>
0

>  <SCORE.heavy>
42

>  <SCORE.norm>
-0.288658

>  <RMSD>
7.994

$$$$
3c44_lig
 OpenBabel11021811463D
libRbt.so/2013.1/901 2013/11/27
 42 45  0  0  0  0  0  0  0  0999 V2000
   35.5053   41.7746  -12.3501 C   0  0  2  0  0  0  0  0  0  0  0  0
   36.4956   40.8259  -11.9245 O   0  0  0  0  0  0  0  0  0  0  0  0
   37.6287   39.7826   -8.0752 C   0  0  2  0  0  0  0  0  0  0  0  0
   37.8212   39.3843   -6.6723 N   0  0  0  0  0  0  0  0  0  0  0  0
   37.0646   37.6224  -12.3813 C   0  0  1  0  0  0  0  0  0  0  0  0
   39.4254   36.6991  -15.6435 C   0  0  1  0  0  0  0  0  0  0  0  0
   34.7043   41.1757  -13.5110 C   0  0  2  0  0  0  0  0  0  0  0  0
   34.1373   39.8715  -13.1386 N   0  0  0  0  0  0  0  0  0  0  0  0
   36.6636   40.9677   -8.1722 C   0  0  0  0  0  0  0  0  0  0  0  0
   38.4156   36.9788  -12.0658 C   0  0  2  0  0  0  0  0  0  0  0  0
   39.3933   37.9914  -11.8201 O   0  0  0  0  0  0  0  0  0  0  0  0
   40.7613   35.9646  -15.4897 C   0  0  2  0  0  0  0  0  0  0  0  0
   41.7544   36.9162  -14.9727 N   0  0  0  0  0  0  0  0  0  0  0  0
   35.5751   41.0042  -14.7582 C   0  0  1  0  0  0  0  0  0  0  0  0
   34.7523   40.5944  -15.8547 O   0  0  0  0  0  0  0  0  0  0  0  0
   36.6324   41.4255   -9.6342 C   0  0  2  0  0  0  0  0  0  0  0  0
   35.6673   42.5258   -9.7788 N   0  0  0  0  0  0  0  0  0  0  0  0
   38.7108   36.3264  -13.4149 C   0  0  2  0  0  0  0  0  0  0  0  0
   39.0668   37.3157  -14.3944 O   0  0  0  0  0  0  0  0  0  0  0  0
   41.2518   35.4194  -16.8374 C   0  0  1  0  0  0  0  0  0  0  0  0
   40.4335   34.3260  -17.2613 O   0  0  0  0  0  0  0  0  0  0  0  0
   36.2593   42.3291  -15.0998 C   0  0  2  0  0  0  0  0  0  0  0  0
   37.1557   42.1379  -16.1975 O   0  0  0  0  0  0  0  0  0  0  0  0
   36.2522   40.3023  -10.6071 C   0  0  2  0  0  0  0  0  0  0  0  0
   37.3442   35.7491  -13.7485 C   0  0  2  0  0  0  0  0  0  0  0  0
   36.3647   36.6064  -13.1232 O   0  0  0  0  0  0  0  0  0  0  0  0
   41.2181   36.5049  -17.9145 C   0  0  2  0  0  0  0  0  0  0  0  0
   42.2013   37.4960  -17.6028 O   0  0  0  0  0  0  0  0  0  0  0  0
   37.0360   42.8330  -13.8824 C   0  0  2  0  0  0  0  0  0  0  0  0
   36.1481   42.9964  -12.7589 O   0  0  0  0  0  0  0  0  0  0  0  0
   37.0251   39.0020  -10.3969 C   0  0  2  0  0  0  0  0  0  0  0  0
   36.3992   37.9496  -11.1489 O   0  0  0  0  0  0  0  0  0  0  0  0
   37.2487   34.3204  -13.2089 C   0  0  0  0  0  0  0  0  0  0  0  0
   37.0504   34.3673  -11.7942 O   0  0  0  0  0  0  0  0  0  0  0  0
   39.8209   37.1298  -17.9480 C   0  0  1  0  0  0  0  0  0  0  0  0
   39.5503   37.7077  -16.6587 O   0  0  0  0  0  0  0  0  0  0  0  0
   37.6613   44.1796  -14.2554 C   0  0  0  0  0  0  0  0  0  0  0  0
   38.8536   43.9685  -15.0890 O   0  0  0  0  0  0  0  0  0  0  0  0
   37.0731   38.6268   -8.9110 C   0  0  1  0  0  0  0  0  0  0  0  0
   37.8750   37.4579   -8.7275 O   0  0  0  0  0  0  0  0  0  0  0  0
   39.6975   38.2149  -19.0183 C   0  0  0  0  0  0  0  0  0  0  0  0
   40.5168   39.3718  -18.6311 N   0  0  0  0  0  0  0  0  0  0  0  0
  1  2  1  6  0  0  0
  1  7  1  0  0  0  0
  1 30  1  0  0  0  0
  3  4  1  1  0  0  0
  3  9  1  0  0  0  0
  3 39  1  0  0  0  0
  5 10  1  0  0  0  0
  5 26  1  0  0  0  0
  5 32  1  1  0  0  0
  6 12  1  0  0  0  0
  6 36  1  0  0  0  0
  6 19  1  1  0  0  0
  7  8  1  1  0  0  0
  7 14  1  0  0  0  0
  9 16  1  0  0  0  0
 10 11  1  6  0  0  0
 10 18  1  0  0  0  0
 12 13  1  6  0  0  0
 12 20  1  0  0  0  0
 14 15  1  6  0  0  0
 14 22  1  0  0  0  0
 16 17  1  1  0  0  0
 16 24  1  0  0  0  0
 18 19  1  6  0  0  0
 18 25  1  0  0  0  0
 20 21  1  6  0  0  0
 20 27  1  0  0  0  0
 22 23  1  6  0  0  0
 22 29  1  0  0  0  0
 24  2  1  6  0  0  0
 24 31  1  0  0  0  0
 25 26  1  0  0  0  0
 25 33  1  1  0  0  0
 27 28  1  1  0  0  0
 27 35  1  0  0  0  0
 29 30  1  0  0  0  0
 29 37  1  6  0  0  0
 31 32  1  6  0  0  0
 31 39  1  0  0  0  0
 33 34  1  0  0  0  0
 35 36  1  0  0  0  0
 35 41  1  6  0  0  0
 37 38  1  0  0  0  0
 39 40  1  6  0  0  0
 41 42  1  0  0  0  0
M  END
>  <CHROM.1>
-112.62606809,68.16111559,-69.85186771,176.44279743,-74.74643903,76.10796513
-77.68529649,101.61821320,-68.66669930,37.87990056,38.90263201,-13.47437144
2.87648734,-1.08426572,2.28084616

>  <Name>
3c44_lig

>  <RI>
0

>  <Rbt.Current_Directory>
/home/itssahil/PROJECTS/Mol_Feturizer/New_Systems/rnas/3c44

>  <Rbt.Executable>
rbdock ($Id: //depot/dev/client3/rdock/2013.1/src/exe/rbdock.cxx#4 $)

>  <Rbt.Library>
libRbt.so (2013.1, Build901 2013/11/27)

>  <Rbt.Parameter_File>
/export/apps/rDock/src/rDock_2013.1_src/data/scripts/dock_solv.prm

>  <Rbt.Receptor>
prm/pocket_docking_7.prm

>  <SCORE>
-18.8599

>  <SCORE.INTER>
-23.3066

>  <SCORE.INTER.CONST>
1

>  <SCORE.INTER.POLAR>
-3.30831

>  <SCORE.INTER.ROT>
9

>  <SCORE.INTER.SOLV>
16.8751

>  <SCORE.INTER.VDW>
-19.7351

>  <SCORE.INTER.norm>
-0.554919

>  <SCORE.INTRA>
4.44665

>  <SCORE.INTRA.DIHEDRAL>
2.25299

>  <SCORE.INTRA.DIHEDRAL.0>
14.8538

>  <SCORE.INTRA.POLAR>
0

>  <SCORE.INTRA.POLAR.0>
0

>  <SCORE.INTRA.REPUL>
0

>  <SCORE.INTRA.REPUL.0>
0

>  <SCORE.INTRA.SOLV>
1.08108

>  <SCORE.INTRA.SOLV.lig_0>
-100.951

>  <SCORE.INTRA.VDW>
2.77961

>  <SCORE.INTRA.VDW.0>
-5.71388

>  <SCORE.INTRA.norm>
0.105873

>  <SCORE.RESTR>
0

>  <SCORE.RESTR.CAVITY>
0

>  <SCORE.RESTR.norm>
0

>  <SCORE.SYSTEM>
0

>  <SCORE.SYSTEM.CONST>
0

>  <SCORE.SYSTEM.DIHEDRAL>
0

>  <SCORE.SYSTEM.SOLV>
0

>  <SCORE.SYSTEM.norm>
0

>  <SCORE.heavy>
42

>  <SCORE.norm>
-0.449046

>  <RMSD>
8.009

$$$$
3c44_lig
 OpenBabel11021811463D
libRbt.so/2013.1/901 2013/11/27
 42 45  0  0  0  0  0  0  0  0999 V2000
   40.3155   40.2208  -13.4239 C   0  0  2  0  0  0  0  0  0  0  0  0
   39.0161   40.1104  -14.0249 O   0  0  0  0  0  0  0  0  0  0  0  0
   37.7273   38.5385  -10.4114 C   0  0  2  0  0  0  0  0  0  0  0  0
   37.0720   37.9977   -9.2106 N   0  0  0  0  0  0  0  0  0  0  0  0
   36.6930   37.0774  -14.2326 C   0  0  1  0  0  0  0  0  0  0  0  0
   33.8819   36.8241  -16.9970 C   0  0  1  0  0  0  0  0  0  0  0  0
   41.2022   41.1053  -14.3067 C   0  0  2  0  0  0  0  0  0  0  0  0
   40.5639   42.4062  -14.5538 N   0  0  0  0  0  0  0  0  0  0  0  0
   37.1552   39.9143  -10.7650 C   0  0  0  0  0  0  0  0  0  0  0  0
   36.5452   36.1636  -15.4500 C   0  0  2  0  0  0  0  0  0  0  0  0
   36.6574   36.9288  -16.6514 O   0  0  0  0  0  0  0  0  0  0  0  0
   34.0566   38.2414  -17.5523 C   0  0  2  0  0  0  0  0  0  0  0  0
   33.2463   39.1587  -16.7393 N   0  0  0  0  0  0  0  0  0  0  0  0
   41.4998   40.4318  -15.6487 C   0  0  1  0  0  0  0  0  0  0  0  0
   42.4535   41.2183  -16.3694 O   0  0  0  0  0  0  0  0  0  0  0  0
   37.9849   40.4812  -11.9219 C   0  0  2  0  0  0  0  0  0  0  0  0
   37.4260   41.7785  -12.3313 N   0  0  0  0  0  0  0  0  0  0  0  0
   35.0901   35.7342  -15.2739 C   0  0  2  0  0  0  0  0  0  0  0  0
   34.1962   36.8131  -15.5934 O   0  0  0  0  0  0  0  0  0  0  0  0
   33.5883   38.3263  -19.0109 C   0  0  1  0  0  0  0  0  0  0  0  0
   34.4955   37.6281  -19.8679 O   0  0  0  0  0  0  0  0  0  0  0  0
   42.0672   39.0310  -15.4120 C   0  0  2  0  0  0  0  0  0  0  0  0
   42.2404   38.3647  -16.6654 O   0  0  0  0  0  0  0  0  0  0  0  0
   38.0268   39.5529  -13.1421 C   0  0  2  0  0  0  0  0  0  0  0  0
   35.0574   35.4733  -13.7762 C   0  0  2  0  0  0  0  0  0  0  0  0
   36.0328   36.3539  -13.1775 O   0  0  0  0  0  0  0  0  0  0  0  0
   32.1927   37.7224  -19.1761 C   0  0  2  0  0  0  0  0  0  0  0  0
   31.2466   38.5523  -18.4962 O   0  0  0  0  0  0  0  0  0  0  0  0
   41.1053   38.2311  -14.5321 C   0  0  2  0  0  0  0  0  0  0  0  0
   40.8957   38.9111  -13.2788 O   0  0  0  0  0  0  0  0  0  0  0  0
   38.3615   38.0995  -12.8133 C   0  0  2  0  0  0  0  0  0  0  0  0
   38.0911   37.2778  -13.9607 O   0  0  0  0  0  0  0  0  0  0  0  0
   35.4018   34.0070  -13.5065 C   0  0  0  0  0  0  0  0  0  0  0  0
   35.7983   33.8635  -12.1408 O   0  0  0  0  0  0  0  0  0  0  0  0
   32.1881   36.3104  -18.5842 C   0  0  1  0  0  0  0  0  0  0  0  0
   32.5223   36.4016  -17.1880 O   0  0  0  0  0  0  0  0  0  0  0  0
   41.7358   36.8584  -14.2837 C   0  0  0  0  0  0  0  0  0  0  0  0
   40.8063   36.0054  -13.5292 O   0  0  0  0  0  0  0  0  0  0  0  0
   37.5451   37.6071  -11.6125 C   0  0  1  0  0  0  0  0  0  0  0  0
   37.9376   36.2769  -11.2667 O   0  0  0  0  0  0  0  0  0  0  0  0
   30.8281   35.6264  -18.7293 C   0  0  0  0  0  0  0  0  0  0  0  0
   30.5530   35.3940  -20.1540 N   0  0  0  0  0  0  0  0  0  0  0  0
  1  2  1  6  0  0  0
  1  7  1  0  0  0  0
  1 30  1  0  0  0  0
  3  4  1  1  0  0  0
  3  9  1  0  0  0  0
  3 39  1  0  0  0  0
  5 10  1  0  0  0  0
  5 26  1  0  0  0  0
  5 32  1  1  0  0  0
  6 12  1  0  0  0  0
  6 36  1  0  0  0  0
  6 19  1  1  0  0  0
  7  8  1  6  0  0  0
  7 14  1  0  0  0  0
  9 16  1  0  0  0  0
 10 11  1  6  0  0  0
 10 18  1  0  0  0  0
 12 13  1  1  0  0  0
 12 20  1  0  0  0  0
 14 15  1  1  0  0  0
 14 22  1  0  0  0  0
 16 17  1  6  0  0  0
 16 24  1  0  0  0  0
 18 19  1  1  0  0  0
 18 25  1  0  0  0  0
 20 21  1  6  0  0  0
 20 27  1  0  0  0  0
 22 23  1  6  0  0  0
 22 29  1  0  0  0  0
 24  2  1  6  0  0  0
 24 31  1  0  0  0  0
 25 26  1  0  0  0  0
 25 33  1  6  0  0  0
 27 28  1  1  0  0  0
 27 35  1  0  0  0  0
 29 30  1  0  0  0  0
 29 37  1  1  0  0  0
 31 32  1  6  0  0  0
 31 39  1  0  0  0  0
 33 34  1  0  0  0  0
 35 36  1  0  0  0  0
 35 41  1  1  0  0  0
 37 38  1  0  0  0  0
 39 40  1  1  0  0  0
 41 42  1  0  0  0  0
M  END
>  <CHROM.1>
-167.08914426,-178.62577168,-131.59582806,87.76184905,58.44427227,161.18485554
-175.56554635,-72.52248412,66.17833358,36.95243715,37.90036414,-14.91077326
-0.36060496,-0.48406447,-1.20067736

>  <Name>
3c44_lig

>  <RI>
0

>  <Rbt.Current_Directory>
/home/itssahil/PROJECTS/Mol_Feturizer/New_Systems/rnas/3c44

>  <Rbt.Executable>
rbdock ($Id: //depot/dev/client3/rdock/2013.1/src/exe/rbdock.cxx#4 $)

>  <Rbt.Library>
libRbt.so (2013.1, Build901 2013/11/27)

>  <Rbt.Parameter_File>
/export/apps/rDock/src/rDock_2013.1_src/data/scripts/dock_solv.prm

>  <Rbt.Receptor>
prm/pocket_docking_6.prm

>  <SCORE>
-7.57486

>  <SCORE.INTER>
-10.8496

>  <SCORE.INTER.CONST>
1

>  <SCORE.INTER.POLAR>
-2.62998

>  <SCORE.INTER.ROT>
9

>  <SCORE.INTER.SOLV>
15.5404

>  <SCORE.INTER.VDW>
-13.2466

>  <SCORE.INTER.norm>
-0.258323

>  <SCORE.INTRA>
3.2747

>  <SCORE.INTRA.DIHEDRAL>
-1.94251

>  <SCORE.INTRA.DIHEDRAL.0>
14.8538

>  <SCORE.INTRA.POLAR>
0

>  <SCORE.INTRA.POLAR.0>
0

>  <SCORE.INTRA.REPUL>
0

>  <SCORE.INTRA.REPUL.0>
0

>  <SCORE.INTRA.SOLV>
-2.4557

>  <SCORE.INTRA.SOLV.lig_0>
-100.951

>  <SCORE.INTRA.VDW>
5.47381

>  <SCORE.INTRA.VDW.0>
-5.71388

>  <SCORE.INTRA.norm>
0.0779691

>  <SCORE.RESTR>
0

>  <SCORE.RESTR.CAVITY>
0

>  <SCORE.RESTR.norm>
0

>  <SCORE.SYSTEM>
0

>  <SCORE.SYSTEM.CONST>
0

>  <SCORE.SYSTEM.DIHEDRAL>
0

>  <SCORE.SYSTEM.SOLV>
0

>  <SCORE.SYSTEM.norm>
0

>  <SCORE.heavy>
42

>  <SCORE.norm>
-0.180354

>  <RMSD>
8.029

$$$$
3c44_lig
 OpenBabel11021811463D
libRbt.so/2013.1/901 2013/11/27
 42 45  0  0  0  0  0  0  0  0999 V2000
   38.2716   39.7753   -9.4602 C   0  0  2  0  0  0  0  0  0  0  0  0
   37.0836   40.4750   -9.8612 O   0  0  0  0  0  0  0  0  0  0  0  0
   35.8623   42.6267  -13.1880 C   0  0  2  0  0  0  0  0  0  0  0  0
   35.5714   43.2722  -14.4774 N   0  0  0  0  0  0  0  0  0  0  0  0
   36.0951   38.4050  -12.8577 C   0  0  1  0  0  0  0  0  0  0  0  0
   38.3401   35.8070  -15.2514 C   0  0  1  0  0  0  0  0  0  0  0  0
   37.9077   38.7451   -8.3859 C   0  0  2  0  0  0  0  0  0  0  0  0
   36.8387   37.8526   -8.8567 N   0  0  0  0  0  0  0  0  0  0  0  0
   37.3550   42.7245  -12.8602 C   0  0  0  0  0  0  0  0  0  0  0  0
   36.0258   36.9071  -12.5570 C   0  0  2  0  0  0  0  0  0  0  0  0
   37.0073   36.5597  -11.5784 O   0  0  0  0  0  0  0  0  0  0  0  0
   38.4318   34.3221  -14.8846 C   0  0  2  0  0  0  0  0  0  0  0  0
   39.2667   34.1946  -13.6822 N   0  0  0  0  0  0  0  0  0  0  0  0
   37.4561   39.4263   -7.0916 C   0  0  1  0  0  0  0  0  0  0  0  0
   37.2808   38.4356   -6.0742 O   0  0  0  0  0  0  0  0  0  0  0  0
   37.5585   42.1758  -11.4440 C   0  0  2  0  0  0  0  0  0  0  0  0
   38.9920   42.1965  -11.1157 N   0  0  0  0  0  0  0  0  0  0  0  0
   36.4632   36.3526  -13.9113 C   0  0  2  0  0  0  0  0  0  0  0  0
   37.8707   36.5566  -14.1171 O   0  0  0  0  0  0  0  0  0  0  0  0
   39.0694   33.5097  -16.0193 C   0  0  1  0  0  0  0  0  0  0  0  0
   38.1753   33.4189  -17.1316 O   0  0  0  0  0  0  0  0  0  0  0  0
   38.5111   40.4390   -6.6426 C   0  0  2  0  0  0  0  0  0  0  0  0
   38.0368   41.1506   -5.4965 O   0  0  0  0  0  0  0  0  0  0  0  0
   37.0321   40.7453  -11.2729 C   0  0  2  0  0  0  0  0  0  0  0  0
   35.6761   37.2557  -14.8478 C   0  0  2  0  0  0  0  0  0  0  0  0
   35.5119   38.5197  -14.1690 O   0  0  0  0  0  0  0  0  0  0  0  0
   40.3750   34.1531  -16.4895 C   0  0  2  0  0  0  0  0  0  0  0  0
   41.3461   34.0446  -15.4448 O   0  0  0  0  0  0  0  0  0  0  0  0
   38.7928   41.4227   -7.7793 C   0  0  2  0  0  0  0  0  0  0  0  0
   39.2387   40.7131   -8.9519 O   0  0  0  0  0  0  0  0  0  0  0  0
   35.6179   40.5292  -11.8078 C   0  0  2  0  0  0  0  0  0  0  0  0
   35.3406   39.1205  -11.8639 O   0  0  0  0  0  0  0  0  0  0  0  0
   34.3203   36.6156  -15.1535 C   0  0  0  0  0  0  0  0  0  0  0  0
   33.5687   37.4924  -15.9957 O   0  0  0  0  0  0  0  0  0  0  0  0
   40.1127   35.6236  -16.8251 C   0  0  1  0  0  0  0  0  0  0  0  0
   39.6390   36.2835  -15.6379 O   0  0  0  0  0  0  0  0  0  0  0  0
   39.8851   42.3832   -7.3020 C   0  0  0  0  0  0  0  0  0  0  0  0
   41.1058   41.6343   -6.9704 O   0  0  0  0  0  0  0  0  0  0  0  0
   35.4576   41.1505  -13.2004 C   0  0  1  0  0  0  0  0  0  0  0  0
   34.1054   41.0153  -13.6434 O   0  0  0  0  0  0  0  0  0  0  0  0
   41.3698   36.3362  -17.3256 C   0  0  0  0  0  0  0  0  0  0  0  0
   41.8092   35.7159  -18.5832 N   0  0  0  0  0  0  0  0  0  0  0  0
  1  2  1  1  0  0  0
  1  7  1  0  0  0  0
  1 30  1  0  0  0  0
  3  4  1  6  0  0  0
  3  9  1  0  0  0  0
  3 39  1  0  0  0  0
  5 10  1  0  0  0  0
  5 26  1  0  0  0  0
  5 32  1  1  0  0  0
  6 12  1  0  0  0  0
  6 36  1  0  0  0  0
  6 19  1  1  0  0  0
  7  8  1  6  0  0  0
  7 14  1  0  0  0  0
  9 16  1  0  0  0  0
 10 11  1  1  0  0  0
 10 18  1  0  0  0  0
 12 13  1  1  0  0  0
 12 20  1  0  0  0  0
 14 15  1  1  0  0  0
 14 22  1  0  0  0  0
 16 17  1  6  0  0  0
 16 24  1  0  0  0  0
 18 19  1  6  0  0  0
 18 25  1  0  0  0  0
 20 21  1  6  0  0  0
 20 27  1  0  0  0  0
 22 23  1  1  0  0  0
 22 29  1  0  0  0  0
 24  2  1  1  0  0  0
 24 31  1  0  0  0  0
 25 26  1  0  0  0  0
 25 33  1  1  0  0  0
 27 28  1  1  0  0  0
 27 35  1  0  0  0  0
 29 30  1  0  0  0  0
 29 37  1  1  0  0  0
 31 32  1  6  0  0  0
 31 39  1  0  0  0  0
 33 34  1  0  0  0  0
 35 36  1  0  0  0  0
 35 41  1  1  0  0  0
 37 38  1  0  0  0  0
 39 40  1  1  0  0  0
 41 42  1  0  0  0  0
M  END
>  <CHROM.1>
-141.22674656,163.73921412,-74.58965605,168.30594203,-96.09579562,177.97304076
60.08026045,-68.83268851,63.22596344,37.70595364,38.47021353,-12.36680327
-1.68060158,0.70027501,-2.13573683

>  <Name>
3c44_lig

>  <RI>
0

>  <Rbt.Current_Directory>
/home/itssahil/PROJECTS/Mol_Feturizer/New_Systems/rnas/3c44

>  <Rbt.Executable>
rbdock ($Id: //depot/dev/client3/rdock/2013.1/src/exe/rbdock.cxx#4 $)

>  <Rbt.Library>
libRbt.so (2013.1, Build901 2013/11/27)

>  <Rbt.Parameter_File>
/export/apps/rDock/src/rDock_2013.1_src/data/scripts/dock_solv.prm

>  <Rbt.Receptor>
prm/pocket_docking_7.prm

>  <SCORE>
-20.5357

>  <SCORE.INTER>
-22.4921

>  <SCORE.INTER.CONST>
1

>  <SCORE.INTER.POLAR>
-4.24404

>  <SCORE.INTER.ROT>
9

>  <SCORE.INTER.SOLV>
19.2669

>  <SCORE.INTER.VDW>
-16.8702

>  <SCORE.INTER.norm>
-0.535525

>  <SCORE.INTRA>
1.94352

>  <SCORE.INTRA.DIHEDRAL>
-1.27922

>  <SCORE.INTRA.DIHEDRAL.0>
14.8538

>  <SCORE.INTRA.POLAR>
0

>  <SCORE.INTRA.POLAR.0>
0

>  <SCORE.INTRA.REPUL>
0

>  <SCORE.INTRA.REPUL.0>
0

>  <SCORE.INTRA.SOLV>
0.420629

>  <SCORE.INTRA.SOLV.lig_0>
-100.951

>  <SCORE.INTRA.VDW>
2.37282

>  <SCORE.INTRA.VDW.0>
-5.71388

>  <SCORE.INTRA.norm>
0.0462743

>  <SCORE.RESTR>
0.0127905

>  <SCORE.RESTR.CAVITY>
0.0127905

>  <SCORE.RESTR.norm>
0.000304535

>  <SCORE.SYSTEM>
0

>  <SCORE.SYSTEM.CONST>
0

>  <SCORE.SYSTEM.DIHEDRAL>
0

>  <SCORE.SYSTEM.SOLV>
0

>  <SCORE.SYSTEM.norm>
0

>  <SCORE.heavy>
42

>  <SCORE.norm>
-0.488946

>  <RMSD>
8.042

$$$$
3c44_lig
 OpenBabel11021811463D
libRbt.so/2013.1/901 2013/11/27
 42 45  0  0  0  0  0  0  0  0999 V2000
   36.3907   41.3559  -13.9567 C   0  0  2  0  0  0  0  0  0  0  0  0
   37.0770   40.2988  -13.2688 O   0  0  0  0  0  0  0  0  0  0  0  0
   38.1092   39.8810   -9.2751 C   0  0  2  0  0  0  0  0  0  0  0  0
   38.2755   39.7986   -7.8159 N   0  0  0  0  0  0  0  0  0  0  0  0
   36.3085   37.2087  -12.9297 C   0  0  1  0  0  0  0  0  0  0  0  0
   38.8894   34.9797  -15.3451 C   0  0  1  0  0  0  0  0  0  0  0  0
   35.0584   40.8221  -14.4932 C   0  0  2  0  0  0  0  0  0  0  0  0
   34.2630   40.2187  -13.4142 N   0  0  0  0  0  0  0  0  0  0  0  0
   37.6570   41.2846   -9.6883 C   0  0  0  0  0  0  0  0  0  0  0  0
   37.2952   36.1044  -12.5476 C   0  0  2  0  0  0  0  0  0  0  0  0
   38.6263   36.6236  -12.5301 O   0  0  0  0  0  0  0  0  0  0  0  0
   40.1498   35.4457  -14.6090 C   0  0  2  0  0  0  0  0  0  0  0  0
   40.3011   36.8916  -14.8229 N   0  0  0  0  0  0  0  0  0  0  0  0
   35.2784   39.7813  -15.5939 C   0  0  1  0  0  0  0  0  0  0  0  0
   34.0165   39.4314  -16.1705 O   0  0  0  0  0  0  0  0  0  0  0  0
   37.6558   41.3424  -11.2195 C   0  0  2  0  0  0  0  0  0  0  0  0
   37.1670   42.6590  -11.6562 N   0  0  0  0  0  0  0  0  0  0  0  0
   37.1395   35.1896  -13.7607 C   0  0  2  0  0  0  0  0  0  0  0  0
   37.7629   35.7666  -14.9198 O   0  0  0  0  0  0  0  0  0  0  0  0
   41.3987   34.7323  -15.1431 C   0  0  1  0  0  0  0  0  0  0  0  0
   41.3951   33.3576  -14.7491 O   0  0  0  0  0  0  0  0  0  0  0  0
   36.1933   40.3563  -16.6767 C   0  0  2  0  0  0  0  0  0  0  0  0
   36.4849   39.3458  -17.6457 O   0  0  0  0  0  0  0  0  0  0  0  0
   36.7862   40.2538  -11.8609 C   0  0  2  0  0  0  0  0  0  0  0  0
   35.6287   35.2112  -13.9320 C   0  0  2  0  0  0  0  0  0  0  0  0
   35.1713   36.4909  -13.4435 O   0  0  0  0  0  0  0  0  0  0  0  0
   41.4632   34.8058  -16.6695 C   0  0  2  0  0  0  0  0  0  0  0  0
   41.6902   36.1638  -17.0575 O   0  0  0  0  0  0  0  0  0  0  0  0
   37.4934   40.8493  -16.0396 C   0  0  2  0  0  0  0  0  0  0  0  0
   37.2093   41.8440  -15.0360 O   0  0  0  0  0  0  0  0  0  0  0  0
   37.0292   38.8507  -11.3089 C   0  0  2  0  0  0  0  0  0  0  0  0
   35.9818   37.9751  -11.7573 O   0  0  0  0  0  0  0  0  0  0  0  0
   35.0084   34.0637  -13.1321 C   0  0  0  0  0  0  0  0  0  0  0  0
   35.6173   34.0120  -11.8400 O   0  0  0  0  0  0  0  0  0  0  0  0
   40.1400   34.2983  -17.2487 C   0  0  1  0  0  0  0  0  0  0  0  0
   39.0784   35.1372  -16.7604 O   0  0  0  0  0  0  0  0  0  0  0  0
   38.3533   41.4576  -17.1505 C   0  0  0  0  0  0  0  0  0  0  0  0
   39.6389   41.9123  -16.6016 O   0  0  0  0  0  0  0  0  0  0  0  0
   37.0793   38.8655   -9.7765 C   0  0  1  0  0  0  0  0  0  0  0  0
   37.3959   37.5611   -9.2850 O   0  0  0  0  0  0  0  0  0  0  0  0
   40.1313   34.3198  -18.7778 C   0  0  0  0  0  0  0  0  0  0  0  0
   38.8847   33.7114  -19.2630 N   0  0  0  0  0  0  0  0  0  0  0  0
  1  2  1  6  0  0  0
  1  7  1  0  0  0  0
  1 30  1  0  0  0  0
  3  4  1  1  0  0  0
  3  9  1  0  0  0  0
  3 39  1  0  0  0  0
  5 10  1  0  0  0  0
  5 26  1  0  0  0  0
  5 32  1  1  0  0  0
  6 12  1  0  0  0  0
  6 36  1  0  0  0  0
  6 19  1  1  0  0  0
  7  8  1  1  0  0  0
  7 14  1  0  0  0  0
  9 16  1  0  0  0  0
 10 11  1  6  0  0  0
 10 18  1  0  0  0  0
 12 13  1  6  0  0  0
 12 20  1  0  0  0  0
 14 15  1  6  0  0  0
 14 22  1  0  0  0  0
 16 17  1  1  0  0  0
 16 24  1  0  0  0  0
 18 19  1  6  0  0  0
 18 25  1  0  0  0  0
 20 21  1  6  0  0  0
 20 27  1  0  0  0  0
 22 23  1  6  0  0  0
 22 29  1  0  0  0  0
 24  2  1  6  0  0  0
 24 31  1  0  0  0  0
 25 26  1  0  0  0  0
 25 33  1  1  0  0  0
 27 28  1  1  0  0  0
 27 35  1  0  0  0  0
 29 30  1  0  0  0  0
 29 37  1  6  0  0  0
 31 32  1  1  0  0  0
 31 39  1  0  0  0  0
 33 34  1  0  0  0  0
 35 36  1  0  0  0  0
 35 41  1  6  0  0  0
 37 38  1  0  0  0  0
 39 40  1  6  0  0  0
 41 42  1  0  0  0  0
M  END
>  <CHROM.1>
-91.77138188,73.54453470,-88.11779582,114.01599472,-79.64000361,44.59171500
-178.22898006,96.29261233,175.02767086,37.68215824,37.85724018,-14.05044675
3.03847530,-1.18093687,2.16136644

>  <Name>
3c44_lig

>  <RI>
224

>  <Rbt.Current_Directory>
/home/itssahil/PROJECTS/Mol_Feturizer/New_Systems/rnas/3c44

>  <Rbt.Executable>
rbdock ($Id: //depot/dev/client3/rdock/2013.1/src/exe/rbdock.cxx#4 $)

>  <Rbt.Library>
libRbt.so (2013.1, Build901 2013/11/27)

>  <Rbt.Parameter_File>
/export/apps/rDock/src/rDock_2013.1_src/data/scripts/dock_solv.prm

>  <Rbt.Receptor>
prm/pocket_docking_8.prm

>  <SCORE>
-20.0528

>  <SCORE.INTER>
-26.1022

>  <SCORE.INTER.CONST>
1

>  <SCORE.INTER.POLAR>
-4.1901

>  <SCORE.INTER.ROT>
9

>  <SCORE.INTER.SOLV>
13.9418

>  <SCORE.INTER.VDW>
-17.6817

>  <SCORE.INTER.norm>
-0.621482

>  <SCORE.INTRA>
6.0494

>  <SCORE.INTRA.DIHEDRAL>
7.45317

>  <SCORE.INTRA.DIHEDRAL.0>
14.8538

>  <SCORE.INTRA.POLAR>
0

>  <SCORE.INTRA.POLAR.0>
0

>  <SCORE.INTRA.REPUL>
0

>  <SCORE.INTRA.REPUL.0>
0

>  <SCORE.INTRA.SOLV>
0.676606

>  <SCORE.INTRA.SOLV.lig_0>
-100.951

>  <SCORE.INTRA.VDW>
1.98451

>  <SCORE.INTRA.VDW.0>
-5.71388

>  <SCORE.INTRA.norm>
0.144033

>  <SCORE.RESTR>
0

>  <SCORE.RESTR.CAVITY>
0

>  <SCORE.RESTR.norm>
0

>  <SCORE.SYSTEM>
0

>  <SCORE.SYSTEM.CONST>
0

>  <SCORE.SYSTEM.DIHEDRAL>
0

>  <SCORE.SYSTEM.SOLV>
0

>  <SCORE.SYSTEM.norm>
0

>  <SCORE.heavy>
42

>  <SCORE.norm>
-0.477448

>  <RMSD>
8.049

$$$$
3c44_lig
 OpenBabel11021811463D
libRbt.so/2013.1/901 2013/11/27
 42 45  0  0  0  0  0  0  0  0999 V2000
   40.0602   40.0570  -11.4009 C   0  0  2  0  0  0  0  0  0  0  0  0
   39.0043   40.9256  -11.8397 O   0  0  0  0  0  0  0  0  0  0  0  0
   38.8296   45.0674  -11.9027 C   0  0  2  0  0  0  0  0  0  0  0  0
   38.9604   46.5280  -12.0190 N   0  0  0  0  0  0  0  0  0  0  0  0
   37.5890   41.1574  -14.5780 C   0  0  1  0  0  0  0  0  0  0  0  0
   34.6448   38.2221  -14.6191 C   0  0  1  0  0  0  0  0  0  0  0  0
   39.8321   38.6579  -11.9825 C   0  0  2  0  0  0  0  0  0  0  0  0
   39.6961   38.7142  -13.4451 N   0  0  0  0  0  0  0  0  0  0  0  0
   40.0258   44.4767  -11.1509 C   0  0  0  0  0  0  0  0  0  0  0  0
   36.1530   41.6148  -14.3180 C   0  0  2  0  0  0  0  0  0  0  0  0
   35.8929   41.6323  -12.9131 O   0  0  0  0  0  0  0  0  0  0  0  0
   34.5706   37.0903  -13.5890 C   0  0  2  0  0  0  0  0  0  0  0  0
   35.9408   36.6673  -13.2686 N   0  0  0  0  0  0  0  0  0  0  0  0
   38.5809   38.0055  -11.3890 C   0  0  1  0  0  0  0  0  0  0  0  0
   38.4981   36.6497  -11.8387 O   0  0  0  0  0  0  0  0  0  0  0  0
   39.7486   42.9857  -10.9311 C   0  0  2  0  0  0  0  0  0  0  0  0
   40.9053   42.3690  -10.2643 N   0  0  0  0  0  0  0  0  0  0  0  0
   35.3939   40.4469  -14.9446 C   0  0  2  0  0  0  0  0  0  0  0  0
   35.4925   39.2726  -14.1222 O   0  0  0  0  0  0  0  0  0  0  0  0
   33.7971   35.8868  -14.1434 C   0  0  1  0  0  0  0  0  0  0  0  0
   32.4047   36.1945  -14.2504 O   0  0  0  0  0  0  0  0  0  0  0  0
   38.6557   38.0337   -9.8613 C   0  0  2  0  0  0  0  0  0  0  0  0
   37.4380   37.5241   -9.3113 O   0  0  0  0  0  0  0  0  0  0  0  0
   39.4673   42.2287  -12.2351 C   0  0  2  0  0  0  0  0  0  0  0  0
   36.1991   40.2446  -16.2186 C   0  0  2  0  0  0  0  0  0  0  0  0
   37.5518   40.6581  -15.9278 O   0  0  0  0  0  0  0  0  0  0  0  0
   34.3194   35.4865  -15.5242 C   0  0  2  0  0  0  0  0  0  0  0  0
   35.6449   34.9673  -15.3842 O   0  0  0  0  0  0  0  0  0  0  0  0
   38.8738   39.4709   -9.3859 C   0  0  2  0  0  0  0  0  0  0  0  0
   40.0811   40.0074   -9.9621 O   0  0  0  0  0  0  0  0  0  0  0  0
   38.4452   42.9060  -13.1457 C   0  0  2  0  0  0  0  0  0  0  0  0
   38.4742   42.2826  -14.4399 O   0  0  0  0  0  0  0  0  0  0  0  0
   35.5955   41.0893  -17.3427 C   0  0  0  0  0  0  0  0  0  0  0  0
   34.1779   40.9076  -17.3544 O   0  0  0  0  0  0  0  0  0  0  0  0
   34.3210   36.7190  -16.4324 C   0  0  1  0  0  0  0  0  0  0  0  0
   35.1830   37.7121  -15.8495 O   0  0  0  0  0  0  0  0  0  0  0  0
   38.9900   39.4425   -7.8598 C   0  0  0  0  0  0  0  0  0  0  0  0
   37.6928   39.0959   -7.2614 O   0  0  0  0  0  0  0  0  0  0  0  0
   38.7388   44.4050  -13.2797 C   0  0  1  0  0  0  0  0  0  0  0  0
   37.7215   45.0345  -14.0618 O   0  0  0  0  0  0  0  0  0  0  0  0
   34.8121   36.3970  -17.8443 C   0  0  0  0  0  0  0  0  0  0  0  0
   34.6790   37.5933  -18.6874 N   0  0  0  0  0  0  0  0  0  0  0  0
  1  2  1  1  0  0  0
  1  7  1  0  0  0  0
  1 30  1  0  0  0  0
  3  4  1  6  0  0  0
  3  9  1  0  0  0  0
  3 39  1  0  0  0  0
  5 10  1  0  0  0  0
  5 26  1  0  0  0  0
  5 32  1  6  0  0  0
  6 12  1  0  0  0  0
  6 36  1  0  0  0  0
  6 19  1  1  0  0  0
  7  8  1  6  0  0  0
  7 14  1  0  0  0  0
  9 16  1  0  0  0  0
 10 11  1  1  0  0  0
 10 18  1  0  0  0  0
 12 13  1  6  0  0  0
 12 20  1  0  0  0  0
 14 15  1  6  0  0  0
 14 22  1  0  0  0  0
 16 17  1  6  0  0  0
 16 24  1  0  0  0  0
 18 19  1  1  0  0  0
 18 25  1  0  0  0  0
 20 21  1  6  0  0  0
 20 27  1  0  0  0  0
 22 23  1  1  0  0  0
 22 29  1  0  0  0  0
 24  2  1  1  0  0  0
 24 31  1  0  0  0  0
 25 26  1  0  0  0  0
 25 33  1  6  0  0  0
 27 28  1  1  0  0  0
 27 35  1  0  0  0  0
 29 30  1  0  0  0  0
 29 37  1  1  0  0  0
 31 32  1  6  0  0  0
 31 39  1  0  0  0  0
 33 34  1  0  0  0  0
 35 36  1  0  0  0  0
 35 41  1  6  0  0  0
 37 38  1  0  0  0  0
 39 40  1  6  0  0  0
 41 42  1  0  0  0  0
M  END
>  <CHROM.1>
-137.65831319,59.44905472,-169.53217613,172.76581426,-76.66441689,-46.75922155
-68.70986650,89.01541060,175.22647489,37.19518465,39.85716566,-13.24469002
-0.21151875,0.97326473,2.57138417

>  <Name>
3c44_lig

>  <RI>
0

>  <Rbt.Current_Directory>
/home/itssahil/PROJECTS/Mol_Feturizer/New_Systems/rnas/3c44

>  <Rbt.Executable>
rbdock ($Id: //depot/dev/client3/rdock/2013.1/src/exe/rbdock.cxx#4 $)

>  <Rbt.Library>
libRbt.so (2013.1, Build901 2013/11/27)

>  <Rbt.Parameter_File>
/export/apps/rDock/src/rDock_2013.1_src/data/scripts/dock_solv.prm

>  <Rbt.Receptor>
prm/pocket_docking_6.prm

>  <SCORE>
-8.45085

>  <SCORE.INTER>
-11.2972

>  <SCORE.INTER.CONST>
1

>  <SCORE.INTER.POLAR>
-1.62912

>  <SCORE.INTER.ROT>
9

>  <SCORE.INTER.SOLV>
13.801

>  <SCORE.INTER.VDW>
-16.3014

>  <SCORE.INTER.norm>
-0.26898

>  <SCORE.INTRA>
2.84631

>  <SCORE.INTRA.DIHEDRAL>
-2.20611

>  <SCORE.INTRA.DIHEDRAL.0>
14.8538

>  <SCORE.INTRA.POLAR>
0

>  <SCORE.INTRA.POLAR.0>
0

>  <SCORE.INTRA.REPUL>
0

>  <SCORE.INTRA.REPUL.0>
0

>  <SCORE.INTRA.SOLV>
2.38451

>  <SCORE.INTRA.SOLV.lig_0>
-100.951

>  <SCORE.INTRA.VDW>
2.75711

>  <SCORE.INTRA.VDW.0>
-5.71388

>  <SCORE.INTRA.norm>
0.0677692

>  <SCORE.RESTR>
0

>  <SCORE.RESTR.CAVITY>
0

>  <SCORE.RESTR.norm>
0

>  <SCORE.SYSTEM>
0

>  <SCORE.SYSTEM.CONST>
0

>  <SCORE.SYSTEM.DIHEDRAL>
0

>  <SCORE.SYSTEM.SOLV>
0

>  <SCORE.SYSTEM.norm>
0

>  <SCORE.heavy>
42

>  <SCORE.norm>
-0.201211

>  <RMSD>
8.074

$$$$
3c44_lig
 OpenBabel11021811463D
libRbt.so/2013.1/901 2013/11/27
 42 45  0  0  0  0  0  0  0  0999 V2000
   37.6903   40.2308   -9.0901 C   0  0  2  0  0  0  0  0  0  0  0  0
   36.5112   40.6308   -9.8052 O   0  0  0  0  0  0  0  0  0  0  0  0
   36.0805   42.6573  -13.3965 C   0  0  2  0  0  0  0  0  0  0  0  0
   36.0779   43.2427  -14.7459 N   0  0  0  0  0  0  0  0  0  0  0  0
   35.6638   38.5340  -13.1019 C   0  0  1  0  0  0  0  0  0  0  0  0
   37.4804   36.1528  -15.8758 C   0  0  1  0  0  0  0  0  0  0  0  0
   37.3632   39.0050   -8.2307 C   0  0  2  0  0  0  0  0  0  0  0  0
   36.7877   37.9289   -9.0504 N   0  0  0  0  0  0  0  0  0  0  0  0
   37.4924   42.6740  -12.8036 C   0  0  0  0  0  0  0  0  0  0  0  0
   35.7364   37.0582  -12.7071 C   0  0  2  0  0  0  0  0  0  0  0  0
   36.8960   36.8237  -11.9058 O   0  0  0  0  0  0  0  0  0  0  0  0
   37.6615   34.6336  -15.7930 C   0  0  2  0  0  0  0  0  0  0  0  0
   38.7567   34.3499  -14.8553 N   0  0  0  0  0  0  0  0  0  0  0  0
   36.3833   39.3572   -7.1088 C   0  0  1  0  0  0  0  0  0  0  0  0
   36.2324   38.2279   -6.2432 O   0  0  0  0  0  0  0  0  0  0  0  0
   37.3938   42.1983  -11.3503 C   0  0  2  0  0  0  0  0  0  0  0  0
   38.7416   42.1422  -10.7644 N   0  0  0  0  0  0  0  0  0  0  0  0
   35.9551   36.4344  -14.0840 C   0  0  2  0  0  0  0  0  0  0  0  0
   37.2887   36.6891  -14.5550 O   0  0  0  0  0  0  0  0  0  0  0  0
   38.0168   34.0427  -17.1637 C   0  0  1  0  0  0  0  0  0  0  0  0
   36.8862   34.0940  -18.0377 O   0  0  0  0  0  0  0  0  0  0  0  0
   36.9163   40.5470   -6.3085 C   0  0  2  0  0  0  0  0  0  0  0  0
   35.9483   40.9421   -5.3328 O   0  0  0  0  0  0  0  0  0  0  0  0
   36.7366   40.8192  -11.2132 C   0  0  2  0  0  0  0  0  0  0  0  0
   34.9619   37.2347  -14.9117 C   0  0  2  0  0  0  0  0  0  0  0  0
   34.8493   38.5327  -14.2889 O   0  0  0  0  0  0  0  0  0  0  0  0
   39.1725   34.8088  -17.8096 C   0  0  2  0  0  0  0  0  0  0  0  0
   40.3628   34.5751  -17.0515 O   0  0  0  0  0  0  0  0  0  0  0  0
   37.1999   41.7146   -7.2547 C   0  0  2  0  0  0  0  0  0  0  0  0
   38.1488   41.3173   -8.2641 O   0  0  0  0  0  0  0  0  0  0  0  0
   35.4300   40.6671  -11.9892 C   0  0  2  0  0  0  0  0  0  0  0  0
   35.0598   39.2793  -12.0302 O   0  0  0  0  0  0  0  0  0  0  0  0
   33.6126   36.5132  -14.9269 C   0  0  0  0  0  0  0  0  0  0  0  0
   32.9976   36.6449  -13.6434 O   0  0  0  0  0  0  0  0  0  0  0  0
   38.8330   36.3016  -17.8254 C   0  0  1  0  0  0  0  0  0  0  0  0
   38.6499   36.7406  -16.4678 O   0  0  0  0  0  0  0  0  0  0  0  0
   37.7745   42.8609   -6.4185 C   0  0  0  0  0  0  0  0  0  0  0  0
   38.1131   43.9980   -7.2863 O   0  0  0  0  0  0  0  0  0  0  0  0
   35.5723   41.2134  -13.4148 C   0  0  1  0  0  0  0  0  0  0  0  0
   34.3161   41.1432  -14.0930 O   0  0  0  0  0  0  0  0  0  0  0  0
   39.9340   37.1388  -18.4775 C   0  0  0  0  0  0  0  0  0  0  0  0
   41.1374   37.0960  -17.6352 N   0  0  0  0  0  0  0  0  0  0  0  0
  1  2  1  1  0  0  0
  1  7  1  0  0  0  0
  1 30  1  0  0  0  0
  3  4  1  6  0  0  0
  3  9  1  0  0  0  0
  3 39  1  0  0  0  0
  5 10  1  0  0  0  0
  5 26  1  0  0  0  0
  5 32  1  1  0  0  0
  6 12  1  0  0  0  0
  6 36  1  0  0  0  0
  6 19  1  1  0  0  0
  7  8  1  6  0  0  0
  7 14  1  0  0  0  0
  9 16  1  0  0  0  0
 10 11  1  1  0  0  0
 10 18  1  0  0  0  0
 12 13  1  1  0  0  0
 12 20  1  0  0  0  0
 14 15  1  1  0  0  0
 14 22  1  0  0  0  0
 16 17  1  6  0  0  0
 16 24  1  0  0  0  0
 18 19  1  6  0  0  0
 18 25  1  0  0  0  0
 20 21  1  6  0  0  0
 20 27  1  0  0  0  0
 22 23  1  1  0  0  0
 22 29  1  0  0  0  0
 24  2  1  1  0  0  0
 24 31  1  0  0  0  0
 25 26  1  0  0  0  0
 25 33  1  1  0  0  0
 27 28  1  1  0  0  0
 27 35  1  0  0  0  0
 29 30  1  0  0  0  0
 29 37  1  1  0  0  0
 31 32  1  6  0  0  0
 31 39  1  0  0  0  0
 33 34  1  0  0  0  0
 35 36  1  0  0  0  0
 35 41  1  1  0  0  0
 37 38  1  0  0  0  0
 39 40  1  1  0  0  0
 41 42  1  0  0  0  0
M  END
>  <CHROM.1>
-130.00467703,154.57202990,-76.57510305,-177.51397653,-79.26651762,72.47877672
177.95317164,-85.59729524,-67.07025028,36.95783581,38.73782229,-12.53241415
2.76095006,1.46059820,-0.18754163

>  <Name>
3c44_lig

>  <RI>
224

>  <Rbt.Current_Directory>
/home/itssahil/PROJECTS/Mol_Feturizer/New_Systems/rnas/3c44

>  <Rbt.Executable>
rbdock ($Id: //depot/dev/client3/rdock/2013.1/src/exe/rbdock.cxx#4 $)

>  <Rbt.Library>
libRbt.so (2013.1, Build901 2013/11/27)

>  <Rbt.Parameter_File>
/export/apps/rDock/src/rDock_2013.1_src/data/scripts/dock_solv.prm

>  <Rbt.Receptor>
prm/pocket_docking_8.prm

>  <SCORE>
-9.35922

>  <SCORE.INTER>
-15.2898

>  <SCORE.INTER.CONST>
1

>  <SCORE.INTER.POLAR>
-2.50922

>  <SCORE.INTER.ROT>
9

>  <SCORE.INTER.SOLV>
15.6752

>  <SCORE.INTER.VDW>
-16.6542

>  <SCORE.INTER.norm>
-0.364042

>  <SCORE.INTRA>
5.93056

>  <SCORE.INTRA.DIHEDRAL>
1.48418

>  <SCORE.INTRA.DIHEDRAL.0>
14.8538

>  <SCORE.INTRA.POLAR>
0

>  <SCORE.INTRA.POLAR.0>
0

>  <SCORE.INTRA.REPUL>
0

>  <SCORE.INTRA.REPUL.0>
0

>  <SCORE.INTRA.SOLV>
1.52079

>  <SCORE.INTRA.SOLV.lig_0>
-100.951

>  <SCORE.INTRA.VDW>
4.42808

>  <SCORE.INTRA.VDW.0>
-5.71388

>  <SCORE.INTRA.norm>
0.141204

>  <SCORE.RESTR>
0

>  <SCORE.RESTR.CAVITY>
0

>  <SCORE.RESTR.norm>
0

>  <SCORE.SYSTEM>
0

>  <SCORE.SYSTEM.CONST>
0

>  <SCORE.SYSTEM.DIHEDRAL>
0

>  <SCORE.SYSTEM.SOLV>
0

>  <SCORE.SYSTEM.norm>
0

>  <SCORE.heavy>
42

>  <SCORE.norm>
-0.222839

>  <RMSD>
8.127

$$$$
3c44_lig
 OpenBabel11021811463D
libRbt.so/2013.1/901 2013/11/27
 42 45  0  0  0  0  0  0  0  0999 V2000
   38.7948   42.1753  -10.3053 C   0  0  2  0  0  0  0  0  0  0  0  0
   37.4598   41.8892  -10.7498 O   0  0  0  0  0  0  0  0  0  0  0  0
   37.0407   39.4211   -7.4450 C   0  0  2  0  0  0  0  0  0  0  0  0
   36.6818   38.5864   -6.2881 N   0  0  0  0  0  0  0  0  0  0  0  0
   37.0691   38.1287  -11.8450 C   0  0  1  0  0  0  0  0  0  0  0  0
   38.6031   34.8153  -13.8663 C   0  0  1  0  0  0  0  0  0  0  0  0
   39.4501   43.1540  -11.2854 C   0  0  2  0  0  0  0  0  0  0  0  0
   38.6237   44.3578  -11.4551 N   0  0  0  0  0  0  0  0  0  0  0  0
   36.5189   40.8493   -7.2625 C   0  0  0  0  0  0  0  0  0  0  0  0
   36.0922   37.2869  -12.6673 C   0  0  2  0  0  0  0  0  0  0  0  0
   35.4917   36.2886  -11.8400 O   0  0  0  0  0  0  0  0  0  0  0  0
   40.0898   35.1642  -13.7407 C   0  0  2  0  0  0  0  0  0  0  0  0
   40.2389   36.6162  -13.9095 N   0  0  0  0  0  0  0  0  0  0  0  0
   39.6746   42.5051  -12.6535 C   0  0  1  0  0  0  0  0  0  0  0  0
   40.4275   43.3977  -13.4805 O   0  0  0  0  0  0  0  0  0  0  0  0
   37.0592   41.6949   -8.4206 C   0  0  2  0  0  0  0  0  0  0  0  0
   36.5284   43.0622   -8.3135 N   0  0  0  0  0  0  0  0  0  0  0  0
   37.0753   36.6102  -13.6205 C   0  0  2  0  0  0  0  0  0  0  0  0
   37.8414   35.6052  -12.9363 O   0  0  0  0  0  0  0  0  0  0  0  0
   40.9187   34.4522  -14.8178 C   0  0  1  0  0  0  0  0  0  0  0  0
   40.9863   33.0492  -14.5494 O   0  0  0  0  0  0  0  0  0  0  0  0
   40.4430   41.1929  -12.4859 C   0  0  2  0  0  0  0  0  0  0  0  0
   40.5543   40.5364  -13.7514 O   0  0  0  0  0  0  0  0  0  0  0  0
   36.6945   41.1287   -9.7986 C   0  0  2  0  0  0  0  0  0  0  0  0
   37.9751   37.7850  -13.9705 C   0  0  2  0  0  0  0  0  0  0  0  0
   37.9695   38.6699  -12.8294 O   0  0  0  0  0  0  0  0  0  0  0  0
   40.3095   34.6582  -16.2057 C   0  0  2  0  0  0  0  0  0  0  0  0
   40.4431   36.0352  -16.5692 O   0  0  0  0  0  0  0  0  0  0  0  0
   39.7023   40.2884  -11.4998 C   0  0  2  0  0  0  0  0  0  0  0  0
   39.5534   40.9538  -10.2301 O   0  0  0  0  0  0  0  0  0  0  0  0
   36.9748   39.6358   -9.9577 C   0  0  2  0  0  0  0  0  0  0  0  0
   36.3388   39.1572  -11.1540 O   0  0  0  0  0  0  0  0  0  0  0  0
   37.4322   38.4898  -15.2155 C   0  0  0  0  0  0  0  0  0  0  0  0
   36.1938   39.1250  -14.8904 O   0  0  0  0  0  0  0  0  0  0  0  0
   38.8327   34.2565  -16.1658 C   0  0  1  0  0  0  0  0  0  0  0  0
   38.1606   35.0900  -15.2050 O   0  0  0  0  0  0  0  0  0  0  0  0
   40.5305   39.0125  -11.3280 C   0  0  0  0  0  0  0  0  0  0  0  0
   39.8343   38.0756  -10.4344 O   0  0  0  0  0  0  0  0  0  0  0  0
   36.4655   38.8500   -8.7436 C   0  0  1  0  0  0  0  0  0  0  0  0
   36.8167   37.4704   -8.8716 O   0  0  0  0  0  0  0  0  0  0  0  0
   38.1530   34.4138  -17.5265 C   0  0  0  0  0  0  0  0  0  0  0  0
   38.7842   33.5020  -18.4908 N   0  0  0  0  0  0  0  0  0  0  0  0
  1  2  1  6  0  0  0
  1  7  1  0  0  0  0
  1 30  1  0  0  0  0
  3  4  1  1  0  0  0
  3  9  1  0  0  0  0
  3 39  1  0  0  0  0
  5 10  1  0  0  0  0
  5 26  1  0  0  0  0
  5 32  1  6  0  0  0
  6 12  1  0  0  0  0
  6 36  1  0  0  0  0
  6 19  1  1  0  0  0
  7  8  1  6  0  0  0
  7 14  1  0  0  0  0
  9 16  1  0  0  0  0
 10 11  1  1  0  0  0
 10 18  1  0  0  0  0
 12 13  1  6  0  0  0
 12 20  1  0  0  0  0
 14 15  1  6  0  0  0
 14 22  1  0  0  0  0
 16 17  1  1  0  0  0
 16 24  1  0  0  0  0
 18 19  1  1  0  0  0
 18 25  1  0  0  0  0
 20 21  1  1  0  0  0
 20 27  1  0  0  0  0
 22 23  1  6  0  0  0
 22 29  1  0  0  0  0
 24  2  1  6  0  0  0
 24 31  1  0  0  0  0
 25 26  1  0  0  0  0
 25 33  1  6  0  0  0
 27 28  1  1  0  0  0
 27 35  1  0  0  0  0
 29 30  1  0  0  0  0
 29 37  1  1  0  0  0
 31 32  1  6  0  0  0
 31 39  1  0  0  0  0
 33 34  1  0  0  0  0
 35 36  1  0  0  0  0
 35 41  1  6  0  0  0
 37 38  1  0  0  0  0
 39 40  1  6  0  0  0
 41 42  1  0  0  0  0
M  END
>  <CHROM.1>
-171.72479669,154.77205486,108.33801175,170.33211799,39.64561756,68.21565186
-177.43186352,145.17915797,63.25974632,38.35586753,38.49519491,-12.32880714
-1.86685203,-1.00052676,-2.63904926

>  <Name>
3c44_lig

>  <RI>
224

>  <Rbt.Current_Directory>
/home/itssahil/PROJECTS/Mol_Feturizer/New_Systems/rnas/3c44

>  <Rbt.Executable>
rbdock ($Id: //depot/dev/client3/rdock/2013.1/src/exe/rbdock.cxx#4 $)

>  <Rbt.Library>
libRbt.so (2013.1, Build901 2013/11/27)

>  <Rbt.Parameter_File>
/export/apps/rDock/src/rDock_2013.1_src/data/scripts/dock_solv.prm

>  <Rbt.Receptor>
prm/pocket_docking_8.prm

>  <SCORE>
-4.20982

>  <SCORE.INTER>
-12.8207

>  <SCORE.INTER.CONST>
1

>  <SCORE.INTER.POLAR>
-2.29902

>  <SCORE.INTER.ROT>
9

>  <SCORE.INTER.SOLV>
13.7299

>  <SCORE.INTER.VDW>
-15.0604

>  <SCORE.INTER.norm>
-0.305255

>  <SCORE.INTRA>
8.6109

>  <SCORE.INTRA.DIHEDRAL>
2.18915

>  <SCORE.INTRA.DIHEDRAL.0>
14.8538

>  <SCORE.INTRA.POLAR>
0

>  <SCORE.INTRA.POLAR.0>
0

>  <SCORE.INTRA.REPUL>
0

>  <SCORE.INTRA.REPUL.0>
0

>  <SCORE.INTRA.SOLV>
2.77886

>  <SCORE.INTRA.SOLV.lig_0>
-100.951

>  <SCORE.INTRA.VDW>
6.12689

>  <SCORE.INTRA.VDW.0>
-5.71388

>  <SCORE.INTRA.norm>
0.205021

>  <SCORE.RESTR>
0

>  <SCORE.RESTR.CAVITY>
0

>  <SCORE.RESTR.norm>
0

>  <SCORE.SYSTEM>
0

>  <SCORE.SYSTEM.CONST>
0

>  <SCORE.SYSTEM.DIHEDRAL>
0

>  <SCORE.SYSTEM.SOLV>
0

>  <SCORE.SYSTEM.norm>
0

>  <SCORE.heavy>
42

>  <SCORE.norm>
-0.100234

>  <RMSD>
8.132

$$$$
3c44_lig
 OpenBabel11021811463D
libRbt.so/2013.1/901 2013/11/27
 42 45  0  0  0  0  0  0  0  0999 V2000
   38.1366   40.7392  -10.2438 C   0  0  2  0  0  0  0  0  0  0  0  0
   38.5102   39.7013  -11.1631 O   0  0  0  0  0  0  0  0  0  0  0  0
   36.3603   41.7706  -14.0415 C   0  0  2  0  0  0  0  0  0  0  0  0
   35.6657   42.3540  -15.1996 N   0  0  0  0  0  0  0  0  0  0  0  0
   36.0885   37.6274  -13.2174 C   0  0  1  0  0  0  0  0  0  0  0  0
   36.8768   34.3570  -15.7861 C   0  0  1  0  0  0  0  0  0  0  0  0
   39.3245   41.0469   -9.3261 C   0  0  2  0  0  0  0  0  0  0  0  0
   40.5236   41.3710  -10.1122 N   0  0  0  0  0  0  0  0  0  0  0  0
   37.8557   41.6139  -14.3320 C   0  0  0  0  0  0  0  0  0  0  0  0
   36.0702   36.1936  -12.6853 C   0  0  2  0  0  0  0  0  0  0  0  0
   37.3705   35.8296  -12.2181 O   0  0  0  0  0  0  0  0  0  0  0  0
   38.1336   34.3669  -16.6624 C   0  0  2  0  0  0  0  0  0  0  0  0
   38.2672   35.7015  -17.2626 N   0  0  0  0  0  0  0  0  0  0  0  0
   39.6359   39.8657   -8.4036 C   0  0  1  0  0  0  0  0  0  0  0  0
   40.6414   40.2549   -7.4629 O   0  0  0  0  0  0  0  0  0  0  0  0
   38.5361   41.1516  -13.0392 C   0  0  2  0  0  0  0  0  0  0  0  0
   39.9674   40.9305  -13.2950 N   0  0  0  0  0  0  0  0  0  0  0  0
   35.7851   35.4413  -13.9836 C   0  0  2  0  0  0  0  0  0  0  0  0
   36.9423   35.4346  -14.8355 O   0  0  0  0  0  0  0  0  0  0  0  0
   38.0340   33.3261  -17.7853 C   0  0  1  0  0  0  0  0  0  0  0  0
   38.1347   32.0037  -17.2506 O   0  0  0  0  0  0  0  0  0  0  0  0
   38.3704   39.4447   -7.6541 C   0  0  2  0  0  0  0  0  0  0  0  0
   38.6389   38.2740   -6.8780 O   0  0  0  0  0  0  0  0  0  0  0  0
   37.9302   39.8629  -12.4693 C   0  0  2  0  0  0  0  0  0  0  0  0
   34.7122   36.3319  -14.5900 C   0  0  2  0  0  0  0  0  0  0  0  0
   34.9681   37.6733  -14.1203 O   0  0  0  0  0  0  0  0  0  0  0  0
   36.7074   33.4530  -18.5361 C   0  0  2  0  0  0  0  0  0  0  0  0
   36.7000   34.6893  -19.2556 O   0  0  0  0  0  0  0  0  0  0  0  0
   37.2543   39.1523   -8.6581 C   0  0  2  0  0  0  0  0  0  0  0  0
   36.9987   40.3153   -9.4700 O   0  0  0  0  0  0  0  0  0  0  0  0
   36.4056   39.8726  -12.3802 C   0  0  2  0  0  0  0  0  0  0  0  0
   35.9359   38.5404  -12.1166 O   0  0  0  0  0  0  0  0  0  0  0  0
   33.3324   35.8460  -14.1411 C   0  0  0  0  0  0  0  0  0  0  0  0
   33.1235   34.5182  -14.6270 O   0  0  0  0  0  0  0  0  0  0  0  0
   35.5579   33.4154  -17.5256 C   0  0  1  0  0  0  0  0  0  0  0  0
   35.7157   34.5188  -16.6163 O   0  0  0  0  0  0  0  0  0  0  0  0
   35.9994   38.7833   -7.8627 C   0  0  0  0  0  0  0  0  0  0  0  0
   35.5833   39.9157   -7.0228 O   0  0  0  0  0  0  0  0  0  0  0  0
   35.7839   40.3996  -13.6790 C   0  0  1  0  0  0  0  0  0  0  0  0
   34.3636   40.4843  -13.5420 O   0  0  0  0  0  0  0  0  0  0  0  0
   34.1897   33.5159  -18.2012 C   0  0  0  0  0  0  0  0  0  0  0  0
   34.0738   34.8206  -18.8675 N   0  0  0  0  0  0  0  0  0  0  0  0
  1  2  1  6  0  0  0
  1  7  1  0  0  0  0
  1 30  1  0  0  0  0
  3  4  1  6  0  0  0
  3  9  1  0  0  0  0
  3 39  1  0  0  0  0
  5 10  1  0  0  0  0
  5 26  1  0  0  0  0
  5 32  1  1  0  0  0
  6 12  1  0  0  0  0
  6 36  1  0  0  0  0
  6 19  1  1  0  0  0
  7  8  1  6  0  0  0
  7 14  1  0  0  0  0
  9 16  1  0  0  0  0
 10 11  1  6  0  0  0
 10 18  1  0  0  0  0
 12 13  1  6  0  0  0
 12 20  1  0  0  0  0
 14 15  1  1  0  0  0
 14 22  1  0  0  0  0
 16 17  1  6  0  0  0
 16 24  1  0  0  0  0
 18 19  1  6  0  0  0
 18 25  1  0  0  0  0
 20 21  1  1  0  0  0
 20 27  1  0  0  0  0
 22 23  1  6  0  0  0
 22 29  1  0  0  0  0
 24  2  1  1  0  0  0
 24 31  1  0  0  0  0
 25 26  1  0  0  0  0
 25 33  1  1  0  0  0
 27 28  1  1  0  0  0
 27 35  1  0  0  0  0
 29 30  1  0  0  0  0
 29 37  1  1  0  0  0
 31 32  1  6  0  0  0
 31 39  1  0  0  0  0
 33 34  1  0  0  0  0
 35 36  1  0  0  0  0
 35 41  1  6  0  0  0
 37 38  1  0  0  0  0
 39 40  1  1  0  0  0
 41 42  1  0  0  0  0
M  END
>  <CHROM.1>
-144.27426535,158.68264292,-179.15158892,158.48787362,64.94103202,-62.28706516
62.02949011,-70.17128882,-63.75843555,36.86831458,37.71399901,-13.22253629
0.34478259,-1.34192082,-0.29578579

>  <Name>
3c44_lig

>  <RI>
0

>  <Rbt.Current_Directory>
/home/itssahil/PROJECTS/Mol_Feturizer/New_Systems/rnas/3c44

>  <Rbt.Executable>
rbdock ($Id: //depot/dev/client3/rdock/2013.1/src/exe/rbdock.cxx#4 $)

>  <Rbt.Library>
libRbt.so (2013.1, Build901 2013/11/27)

>  <Rbt.Parameter_File>
/export/apps/rDock/src/rDock_2013.1_src/data/scripts/dock_solv.prm

>  <Rbt.Receptor>
prm/pocket_docking_6.prm

>  <SCORE>
-18.1233

>  <SCORE.INTER>
-18.7726

>  <SCORE.INTER.CONST>
1

>  <SCORE.INTER.POLAR>
-2.98345

>  <SCORE.INTER.ROT>
9

>  <SCORE.INTER.SOLV>
12.8919

>  <SCORE.INTER.VDW>
-16.4675

>  <SCORE.INTER.norm>
-0.446966

>  <SCORE.INTRA>
0.645858

>  <SCORE.INTRA.DIHEDRAL>
-5.14962

>  <SCORE.INTRA.DIHEDRAL.0>
14.8538

>  <SCORE.INTRA.POLAR>
0

>  <SCORE.INTRA.POLAR.0>
0

>  <SCORE.INTRA.REPUL>
0

>  <SCORE.INTRA.REPUL.0>
0

>  <SCORE.INTRA.SOLV>
-0.261455

>  <SCORE.INTRA.SOLV.lig_0>
-100.951

>  <SCORE.INTRA.VDW>
3.35139

>  <SCORE.INTRA.VDW.0>
-5.71388

>  <SCORE.INTRA.norm>
0.0153776

>  <SCORE.RESTR>
0.00339351

>  <SCORE.RESTR.CAVITY>
0.00339351

>  <SCORE.RESTR.norm>
8.07979e-05

>  <SCORE.SYSTEM>
0

>  <SCORE.SYSTEM.CONST>
0

>  <SCORE.SYSTEM.DIHEDRAL>
0

>  <SCORE.SYSTEM.SOLV>
0

>  <SCORE.SYSTEM.norm>
0

>  <SCORE.heavy>
42

>  <SCORE.norm>
-0.431507

>  <RMSD>
8.156

$$$$
3c44_lig
 OpenBabel11021811463D
libRbt.so/2013.1/901 2013/11/27
 42 45  0  0  0  0  0  0  0  0999 V2000
   38.7305   39.5802   -9.7267 C   0  0  2  0  0  0  0  0  0  0  0  0
   37.5665   40.3684  -10.0194 O   0  0  0  0  0  0  0  0  0  0  0  0
   36.0512   42.4293  -13.2823 C   0  0  2  0  0  0  0  0  0  0  0  0
   35.6383   43.0324  -14.5588 N   0  0  0  0  0  0  0  0  0  0  0  0
   35.9392   38.2696  -12.9266 C   0  0  1  0  0  0  0  0  0  0  0  0
   37.2441   35.6319  -15.8974 C   0  0  1  0  0  0  0  0  0  0  0  0
   38.3935   38.5841   -8.6122 C   0  0  2  0  0  0  0  0  0  0  0  0
   37.2190   37.7755   -8.9696 N   0  0  0  0  0  0  0  0  0  0  0  0
   37.5741   42.4799  -13.1291 C   0  0  0  0  0  0  0  0  0  0  0  0
   35.9592   36.7757  -12.5995 C   0  0  2  0  0  0  0  0  0  0  0  0
   37.2046   36.4254  -11.9928 O   0  0  0  0  0  0  0  0  0  0  0  0
   37.3735   34.1394  -15.5760 C   0  0  2  0  0  0  0  0  0  0  0  0
   38.5328   33.9565  -14.6919 N   0  0  0  0  0  0  0  0  0  0  0  0
   38.1218   39.3016   -7.2876 C   0  0  1  0  0  0  0  0  0  0  0  0
   37.9696   38.3303   -6.2481 O   0  0  0  0  0  0  0  0  0  0  0  0
   37.9181   41.9820  -11.7213 C   0  0  2  0  0  0  0  0  0  0  0  0
   39.3795   41.9581  -11.5574 N   0  0  0  0  0  0  0  0  0  0  0  0
   35.9225   36.2023  -14.0147 C   0  0  2  0  0  0  0  0  0  0  0  0
   37.1861   36.3862  -14.6739 O   0  0  0  0  0  0  0  0  0  0  0  0
   37.5880   33.3147  -16.8519 C   0  0  1  0  0  0  0  0  0  0  0  0
   36.3899   33.2809  -17.6318 O   0  0  0  0  0  0  0  0  0  0  0  0
   39.2895   40.2311   -6.9517 C   0  0  2  0  0  0  0  0  0  0  0  0
   38.9834   40.9803   -5.7728 O   0  0  0  0  0  0  0  0  0  0  0  0
   37.3640   40.5824  -11.4273 C   0  0  2  0  0  0  0  0  0  0  0  0
   34.8796   37.1062  -14.6530 C   0  0  2  0  0  0  0  0  0  0  0  0
   34.9587   38.3788  -13.9751 O   0  0  0  0  0  0  0  0  0  0  0  0
   38.7130   33.9040  -17.7045 C   0  0  2  0  0  0  0  0  0  0  0  0
   39.9536   33.7361  -17.0127 O   0  0  0  0  0  0  0  0  0  0  0  0
   39.5354   41.1870   -8.1201 C   0  0  2  0  0  0  0  0  0  0  0  0
   39.8109   40.4419   -9.3226 O   0  0  0  0  0  0  0  0  0  0  0  0
   35.8913   40.4020  -11.7894 C   0  0  2  0  0  0  0  0  0  0  0  0
   35.5594   39.0044  -11.7500 O   0  0  0  0  0  0  0  0  0  0  0  0
   33.4930   36.4805  -14.4879 C   0  0  0  0  0  0  0  0  0  0  0  0
   33.4900   35.1848  -15.0912 O   0  0  0  0  0  0  0  0  0  0  0  0
   38.4306   35.3897  -17.9433 C   0  0  1  0  0  0  0  0  0  0  0  0
   38.3806   36.0536  -16.6682 O   0  0  0  0  0  0  0  0  0  0  0  0
   40.7388   42.0616   -7.7591 C   0  0  0  0  0  0  0  0  0  0  0  0
   40.9081   43.1249   -8.7599 O   0  0  0  0  0  0  0  0  0  0  0  0
   35.5955   40.9713  -13.1820 C   0  0  1  0  0  0  0  0  0  0  0  0
   34.1976   40.8730  -13.4636 O   0  0  0  0  0  0  0  0  0  0  0  0
   39.5033   36.0508  -18.8097 C   0  0  0  0  0  0  0  0  0  0  0  0
   40.7919   36.0028  -18.1048 N   0  0  0  0  0  0  0  0  0  0  0  0
  1  2  1  1  0  0  0
  1  7  1  0  0  0  0
  1 30  1  0  0  0  0
  3  4  1  6  0  0  0
  3  9  1  0  0  0  0
  3 39  1  0  0  0  0
  5 10  1  0  0  0  0
  5 26  1  0  0  0  0
  5 32  1  1  0  0  0
  6 12  1  0  0  0  0
  6 36  1  0  0  0  0
  6 19  1  1  0  0  0
  7  8  1  6  0  0  0
  7 14  1  0  0  0  0
  9 16  1  0  0  0  0
 10 11  1  6  0  0  0
 10 18  1  0  0  0  0
 12 13  1  1  0  0  0
 12 20  1  0  0  0  0
 14 15  1  1  0  0  0
 14 22  1  0  0  0  0
 16 17  1  6  0  0  0
 16 24  1  0  0  0  0
 18 19  1  6  0  0  0
 18 25  1  0  0  0  0
 20 21  1  6  0  0  0
 20 27  1  0  0  0  0
 22 23  1  1  0  0  0
 22 29  1  0  0  0  0
 24  2  1  1  0  0  0
 24 31  1  0  0  0  0
 25 26  1  0  0  0  0
 25 33  1  1  0  0  0
 27 28  1  1  0  0  0
 27 35  1  0  0  0  0
 29 30  1  0  0  0  0
 29 37  1  1  0  0  0
 31 32  1  6  0  0  0
 31 39  1  0  0  0  0
 33 34  1  0  0  0  0
 35 36  1  0  0  0  0
 35 41  1  6  0  0  0
 37 38  1  0  0  0  0
 39 40  1  1  0  0  0
 41 42  1  0  0  0  0
M  END
>  <CHROM.1>
-138.32925844,161.83199742,-72.32077460,168.99510988,-99.07858928,-58.22129852
-172.12475653,-80.81336790,-63.28777316,37.48302452,38.28503290,-12.71464221
-1.40989431,0.77515596,-2.32758792

>  <Name>
3c44_lig

>  <RI>
0

>  <Rbt.Current_Directory>
/home/itssahil/PROJECTS/Mol_Feturizer/New_Systems/rnas/3c44

>  <Rbt.Executable>
rbdock ($Id: //depot/dev/client3/rdock/2013.1/src/exe/rbdock.cxx#4 $)

>  <Rbt.Library>
libRbt.so (2013.1, Build901 2013/11/27)

>  <Rbt.Parameter_File>
/export/apps/rDock/src/rDock_2013.1_src/data/scripts/dock_solv.prm

>  <Rbt.Receptor>
prm/pocket_docking_7.prm

>  <SCORE>
-15.5952

>  <SCORE.INTER>
-20.4839

>  <SCORE.INTER.CONST>
1

>  <SCORE.INTER.POLAR>
-3.68653

>  <SCORE.INTER.ROT>
9

>  <SCORE.INTER.SOLV>
15.5862

>  <SCORE.INTER.VDW>
-16.1629

>  <SCORE.INTER.norm>
-0.487712

>  <SCORE.INTRA>
4.88867

>  <SCORE.INTRA.DIHEDRAL>
1.39741

>  <SCORE.INTRA.DIHEDRAL.0>
14.8538

>  <SCORE.INTRA.POLAR>
0

>  <SCORE.INTRA.POLAR.0>
0

>  <SCORE.INTRA.REPUL>
0

>  <SCORE.INTRA.REPUL.0>
0

>  <SCORE.INTRA.SOLV>
2.16105

>  <SCORE.INTRA.SOLV.lig_0>
-100.951

>  <SCORE.INTRA.VDW>
3.10944

>  <SCORE.INTRA.VDW.0>
-5.71388

>  <SCORE.INTRA.norm>
0.116397

>  <SCORE.RESTR>
0

>  <SCORE.RESTR.CAVITY>
0

>  <SCORE.RESTR.norm>
0

>  <SCORE.SYSTEM>
0

>  <SCORE.SYSTEM.CONST>
0

>  <SCORE.SYSTEM.DIHEDRAL>
0

>  <SCORE.SYSTEM.SOLV>
0

>  <SCORE.SYSTEM.norm>
0

>  <SCORE.heavy>
42

>  <SCORE.norm>
-0.371315

>  <RMSD>
8.162

$$$$
3c44_lig
 OpenBabel11021811463D
libRbt.so/2013.1/901 2013/11/27
 42 45  0  0  0  0  0  0  0  0999 V2000
   39.6508   41.5175   -9.9085 C   0  0  2  0  0  0  0  0  0  0  0  0
   38.3368   40.9570   -9.7638 O   0  0  0  0  0  0  0  0  0  0  0  0
   35.5324   39.9558  -12.6486 C   0  0  2  0  0  0  0  0  0  0  0  0
   34.5220   39.8117  -13.7080 N   0  0  0  0  0  0  0  0  0  0  0  0
   38.9161   42.4584  -13.1758 C   0  0  1  0  0  0  0  0  0  0  0  0
   39.8282   46.5111  -13.6122 C   0  0  1  0  0  0  0  0  0  0  0  0
   40.5364   41.0207   -8.7610 C   0  0  2  0  0  0  0  0  0  0  0  0
   40.5351   39.5521   -8.6961 N   0  0  0  0  0  0  0  0  0  0  0  0
   35.0274   40.8893  -11.5446 C   0  0  0  0  0  0  0  0  0  0  0  0
   40.2708   43.1409  -13.3714 C   0  0  2  0  0  0  0  0  0  0  0  0
   40.7026   43.7298  -12.1432 O   0  0  0  0  0  0  0  0  0  0  0  0
   40.3392   46.7647  -12.1901 C   0  0  2  0  0  0  0  0  0  0  0  0
   39.1958   46.6955  -11.2698 N   0  0  0  0  0  0  0  0  0  0  0  0
   40.0698   41.5808   -7.4150 C   0  0  1  0  0  0  0  0  0  0  0  0
   41.0142   41.2212   -6.4021 O   0  0  0  0  0  0  0  0  0  0  0  0
   36.0567   40.8692  -10.4097 C   0  0  2  0  0  0  0  0  0  0  0  0
   35.6358   41.8034   -9.3546 N   0  0  0  0  0  0  0  0  0  0  0  0
   39.8611   44.2539  -14.3338 C   0  0  2  0  0  0  0  0  0  0  0  0
   39.1056   45.2680  -13.6512 O   0  0  0  0  0  0  0  0  0  0  0  0
   40.9864   48.1509  -12.0732 C   0  0  1  0  0  0  0  0  0  0  0  0
   42.2316   48.1813  -12.7757 O   0  0  0  0  0  0  0  0  0  0  0  0
   39.9625   43.1047   -7.4960 C   0  0  2  0  0  0  0  0  0  0  0  0
   39.4220   43.6139   -6.2739 O   0  0  0  0  0  0  0  0  0  0  0  0
   37.4687   41.2491  -10.8728 C   0  0  2  0  0  0  0  0  0  0  0  0
   38.9466   43.4847  -15.2740 C   0  0  2  0  0  0  0  0  0  0  0  0
   38.3582   42.4153  -14.5022 O   0  0  0  0  0  0  0  0  0  0  0  0
   40.0719   49.2346  -12.6468 C   0  0  2  0  0  0  0  0  0  0  0  0
   38.9190   49.3574  -11.8091 O   0  0  0  0  0  0  0  0  0  0  0  0
   39.0526   43.4925   -8.6627 C   0  0  2  0  0  0  0  0  0  0  0  0
   39.5692   42.9549   -9.8961 O   0  0  0  0  0  0  0  0  0  0  0  0
   37.9367   40.5135  -12.1268 C   0  0  2  0  0  0  0  0  0  0  0  0
   39.1252   41.1434  -12.6321 O   0  0  0  0  0  0  0  0  0  0  0  0
   39.7650   42.9329  -16.4433 C   0  0  0  0  0  0  0  0  0  0  0  0
   40.3578   44.0221  -17.1540 O   0  0  0  0  0  0  0  0  0  0  0  0
   39.6610   48.8385  -14.0674 C   0  0  1  0  0  0  0  0  0  0  0  0
   38.9584   47.5848  -14.0047 O   0  0  0  0  0  0  0  0  0  0  0  0
   39.0146   45.0212   -8.7334 C   0  0  0  0  0  0  0  0  0  0  0  0
   40.3493   45.5446   -9.0584 O   0  0  0  0  0  0  0  0  0  0  0  0
   36.8448   40.5155  -13.2032 C   0  0  1  0  0  0  0  0  0  0  0  0
   37.2689   39.7472  -14.3314 O   0  0  0  0  0  0  0  0  0  0  0  0
   38.7586   49.8853  -14.7221 C   0  0  0  0  0  0  0  0  0  0  0  0
   37.5035   49.9841  -13.9641 N   0  0  0  0  0  0  0  0  0  0  0  0
  1  2  1  1  0  0  0
  1  7  1  0  0  0  0
  1 30  1  0  0  0  0
  3  4  1  6  0  0  0
  3  9  1  0  0  0  0
  3 39  1  0  0  0  0
  5 10  1  0  0  0  0
  5 26  1  0  0  0  0
  5 32  1  6  0  0  0
  6 12  1  0  0  0  0
  6 36  1  0  0  0  0
  6 19  1  1  0  0  0
  7  8  1  1  0  0  0
  7 14  1  0  0  0  0
  9 16  1  0  0  0  0
 10 11  1  1  0  0  0
 10 18  1  0  0  0  0
 12 13  1  1  0  0  0
 12 20  1  0  0  0  0
 14 15  1  1  0  0  0
 14 22  1  0  0  0  0
 16 17  1  1  0  0  0
 16 24  1  0  0  0  0
 18 19  1  1  0  0  0
 18 25  1  0  0  0  0
 20 21  1  6  0  0  0
 20 27  1  0  0  0  0
 22 23  1  1  0  0  0
 22 29  1  0  0  0  0
 24  2  1  1  0  0  0
 24 31  1  0  0  0  0
 25 26  1  0  0  0  0
 25 33  1  6  0  0  0
 27 28  1  1  0  0  0
 27 35  1  0  0  0  0
 29 30  1  0  0  0  0
 29 37  1  6  0  0  0
 31 32  1  6  0  0  0
 31 39  1  0  0  0  0
 33 34  1  0  0  0  0
 35 36  1  0  0  0  0
 35 41  1  1  0  0  0
 37 38  1  0  0  0  0
 39 40  1  6  0  0  0
 41 42  1  0  0  0  0
M  END
>  <CHROM.1>
-173.71956192,166.86347821,-107.33240233,113.67685347,-167.21130403,-60.66368872
64.49990923,-68.74279504,-63.39736054,38.96935248,43.80307081,-11.78856919
-2.06083952,-1.15482145,-0.92352521

>  <Name>
3c44_lig

>  <RI>
0

>  <Rbt.Current_Directory>
/home/itssahil/PROJECTS/Mol_Feturizer/New_Systems/rnas/3c44

>  <Rbt.Executable>
rbdock ($Id: //depot/dev/client3/rdock/2013.1/src/exe/rbdock.cxx#4 $)

>  <Rbt.Library>
libRbt.so (2013.1, Build901 2013/11/27)

>  <Rbt.Parameter_File>
/export/apps/rDock/src/rDock_2013.1_src/data/scripts/dock_solv.prm

>  <Rbt.Receptor>
prm/pocket_docking_7.prm

>  <SCORE>
-8.69995

>  <SCORE.INTER>
-11.3696

>  <SCORE.INTER.CONST>
1

>  <SCORE.INTER.POLAR>
-1.73465

>  <SCORE.INTER.ROT>
9

>  <SCORE.INTER.SOLV>
19.037

>  <SCORE.INTER.VDW>
-17.7433

>  <SCORE.INTER.norm>
-0.270706

>  <SCORE.INTRA>
2.65918

>  <SCORE.INTRA.DIHEDRAL>
0.711656

>  <SCORE.INTRA.DIHEDRAL.0>
14.8538

>  <SCORE.INTRA.POLAR>
0

>  <SCORE.INTRA.POLAR.0>
0

>  <SCORE.INTRA.REPUL>
0

>  <SCORE.INTRA.REPUL.0>
0

>  <SCORE.INTRA.SOLV>
1.05206

>  <SCORE.INTRA.SOLV.lig_0>
-100.951

>  <SCORE.INTRA.VDW>
1.77732

>  <SCORE.INTRA.VDW.0>
-5.71388

>  <SCORE.INTRA.norm>
0.0633138

>  <SCORE.RESTR>
0.0105131

>  <SCORE.RESTR.CAVITY>
0.0105131

>  <SCORE.RESTR.norm>
0.000250312

>  <SCORE.SYSTEM>
0

>  <SCORE.SYSTEM.CONST>
0

>  <SCORE.SYSTEM.DIHEDRAL>
0

>  <SCORE.SYSTEM.SOLV>
0

>  <SCORE.SYSTEM.norm>
0

>  <SCORE.heavy>
42

>  <SCORE.norm>
-0.207142

>  <RMSD>
8.171

$$$$
3c44_lig
 OpenBabel11021811463D
libRbt.so/2013.1/901 2013/11/27
 42 45  0  0  0  0  0  0  0  0999 V2000
   38.7362   39.9722  -14.1494 C   0  0  2  0  0  0  0  0  0  0  0  0
   38.7651   40.4691  -12.8025 O   0  0  0  0  0  0  0  0  0  0  0  0
   37.6467   39.2637   -8.9966 C   0  0  2  0  0  0  0  0  0  0  0  0
   37.1054   38.7117   -7.7451 N   0  0  0  0  0  0  0  0  0  0  0  0
   38.6093   37.1028  -12.7294 C   0  0  1  0  0  0  0  0  0  0  0  0
   35.9210   35.6811  -14.7768 C   0  0  1  0  0  0  0  0  0  0  0  0
   39.3740   41.0094  -15.0797 C   0  0  2  0  0  0  0  0  0  0  0  0
   40.7243   41.3651  -14.6204 N   0  0  0  0  0  0  0  0  0  0  0  0
   36.5315   39.8961   -9.8342 C   0  0  0  0  0  0  0  0  0  0  0  0
   39.3382   36.1517  -13.6797 C   0  0  2  0  0  0  0  0  0  0  0  0
   39.8299   36.8734  -14.8106 O   0  0  0  0  0  0  0  0  0  0  0  0
   35.6921   34.1858  -15.0203 C   0  0  2  0  0  0  0  0  0  0  0  0
   36.1665   33.8605  -16.3724 N   0  0  0  0  0  0  0  0  0  0  0  0
   38.5238   42.2796  -15.1633 C   0  0  1  0  0  0  0  0  0  0  0  0
   39.0722   43.1490  -16.1587 O   0  0  0  0  0  0  0  0  0  0  0  0
   37.1848   40.5831  -11.0381 C   0  0  2  0  0  0  0  0  0  0  0  0
   36.1381   41.1513  -11.9009 N   0  0  0  0  0  0  0  0  0  0  0  0
   38.1638   35.2818  -14.1234 C   0  0  2  0  0  0  0  0  0  0  0  0
   37.3018   36.0039  -15.0181 O   0  0  0  0  0  0  0  0  0  0  0  0
   34.2032   33.8296  -14.9183 C   0  0  1  0  0  0  0  0  0  0  0  0
   33.7617   33.9137  -13.5607 O   0  0  0  0  0  0  0  0  0  0  0  0
   37.0852   41.9177  -15.5371 C   0  0  2  0  0  0  0  0  0  0  0  0
   36.2708   43.0928  -15.5064 O   0  0  0  0  0  0  0  0  0  0  0  0
   38.0532   39.6337  -11.8729 C   0  0  2  0  0  0  0  0  0  0  0  0
   37.4562   35.0723  -12.7939 C   0  0  2  0  0  0  0  0  0  0  0  0
   37.7280   36.2392  -11.9877 O   0  0  0  0  0  0  0  0  0  0  0  0
   33.3528   34.7728  -15.7709 C   0  0  2  0  0  0  0  0  0  0  0  0
   33.6372   34.5306  -17.1516 O   0  0  0  0  0  0  0  0  0  0  0  0
   36.5419   40.8885  -14.5448 C   0  0  2  0  0  0  0  0  0  0  0  0
   37.3754   39.7127  -14.5417 O   0  0  0  0  0  0  0  0  0  0  0  0
   39.0297   38.7928  -11.0532 C   0  0  2  0  0  0  0  0  0  0  0  0
   39.5729   37.7519  -11.8816 O   0  0  0  0  0  0  0  0  0  0  0  0
   37.9925   33.8048  -12.1250 C   0  0  0  0  0  0  0  0  0  0  0  0
   37.1832   33.4985  -10.9874 O   0  0  0  0  0  0  0  0  0  0  0  0
   33.6910   36.2194  -15.4010 C   0  0  1  0  0  0  0  0  0  0  0  0
   35.0874   36.4418  -15.6656 O   0  0  0  0  0  0  0  0  0  0  0  0
   35.1225   40.5225  -14.9861 C   0  0  0  0  0  0  0  0  0  0  0  0
   34.3969   39.8882  -13.8761 O   0  0  0  0  0  0  0  0  0  0  0  0
   38.3343   38.1805   -9.8315 C   0  0  1  0  0  0  0  0  0  0  0  0
   39.2843   37.4727   -9.0318 O   0  0  0  0  0  0  0  0  0  0  0  0
   32.8640   37.2292  -16.1979 C   0  0  0  0  0  0  0  0  0  0  0  0
   33.3950   38.5797  -15.9660 N   0  0  0  0  0  0  0  0  0  0  0  0
  1  2  1  1  0  0  0
  1  7  1  0  0  0  0
  1 30  1  0  0  0  0
  3  4  1  1  0  0  0
  3  9  1  0  0  0  0
  3 39  1  0  0  0  0
  5 10  1  0  0  0  0
  5 26  1  0  0  0  0
  5 32  1  1  0  0  0
  6 12  1  0  0  0  0
  6 36  1  0  0  0  0
  6 19  1  6  0  0  0
  7  8  1  1  0  0  0
  7 14  1  0  0  0  0
  9 16  1  0  0  0  0
 10 11  1  6  0  0  0
 10 18  1  0  0  0  0
 12 13  1  6  0  0  0
 12 20  1  0  0  0  0
 14 15  1  6  0  0  0
 14 22  1  0  0  0  0
 16 17  1  6  0  0  0
 16 24  1  0  0  0  0
 18 19  1  6  0  0  0
 18 25  1  0  0  0  0
 20 21  1  1  0  0  0
 20 27  1  0  0  0  0
 22 23  1  1  0  0  0
 22 29  1  0  0  0  0
 24  2  1  6  0  0  0
 24 31  1  0  0  0  0
 25 26  1  0  0  0  0
 25 33  1  1  0  0  0
 27 28  1  6  0  0  0
 27 35  1  0  0  0  0
 29 30  1  0  0  0  0
 29 37  1  6  0  0  0
 31 32  1  6  0  0  0
 31 39  1  0  0  0  0
 33 34  1  0  0  0  0
 35 36  1  0  0  0  0
 35 41  1  6  0  0  0
 37 38  1  0  0  0  0
 39 40  1  1  0  0  0
 41 42  1  0  0  0  0
M  END
>  <CHROM.1>
173.38145163,172.77297986,-61.30183430,-142.22490564,-133.25972643,-170.96013371
-162.06750156,-42.53322775,-170.37583490,36.95636411,37.96806073,-13.56506423
0.71516370,-0.95277785,-0.46305175

>  <Name>
3c44_lig

>  <RI>
0

>  <Rbt.Current_Directory>
/home/itssahil/PROJECTS/Mol_Feturizer/New_Systems/rnas/3c44

>  <Rbt.Executable>
rbdock ($Id: //depot/dev/client3/rdock/2013.1/src/exe/rbdock.cxx#4 $)

>  <Rbt.Library>
libRbt.so (2013.1, Build901 2013/11/27)

>  <Rbt.Parameter_File>
/export/apps/rDock/src/rDock_2013.1_src/data/scripts/dock_solv.prm

>  <Rbt.Receptor>
prm/pocket_docking_2.prm

>  <SCORE>
12.3374

>  <SCORE.INTER>
-9.0434

>  <SCORE.INTER.CONST>
1

>  <SCORE.INTER.POLAR>
-2.55688

>  <SCORE.INTER.ROT>
9

>  <SCORE.INTER.SOLV>
13.2106

>  <SCORE.INTER.VDW>
-11.5095

>  <SCORE.INTER.norm>
-0.215319

>  <SCORE.INTRA>
9.06316

>  <SCORE.INTRA.DIHEDRAL>
0.0572976

>  <SCORE.INTRA.DIHEDRAL.0>
14.8538

>  <SCORE.INTRA.POLAR>
0

>  <SCORE.INTRA.POLAR.0>
0

>  <SCORE.INTRA.REPUL>
0.100265

>  <SCORE.INTRA.REPUL.0>
0

>  <SCORE.INTRA.SOLV>
3.01712

>  <SCORE.INTRA.SOLV.lig_0>
-100.951

>  <SCORE.INTRA.VDW>
7.02463

>  <SCORE.INTRA.VDW.0>
-5.71388

>  <SCORE.INTRA.norm>
0.21579

>  <SCORE.RESTR>
12.3177

>  <SCORE.RESTR.CAVITY>
12.3177

>  <SCORE.RESTR.norm>
0.293278

>  <SCORE.SYSTEM>
0

>  <SCORE.SYSTEM.CONST>
0

>  <SCORE.SYSTEM.DIHEDRAL>
0

>  <SCORE.SYSTEM.SOLV>
0

>  <SCORE.SYSTEM.norm>
0

>  <SCORE.heavy>
42

>  <SCORE.norm>
0.293748

>  <RMSD>
8.213

$$$$
3c44_lig
 OpenBabel11021811463D
libRbt.so/2013.1/901 2013/11/27
 42 45  0  0  0  0  0  0  0  0999 V2000
   36.4999   41.9155  -13.3525 C   0  0  2  0  0  0  0  0  0  0  0  0
   37.1174   40.8477  -12.6175 O   0  0  0  0  0  0  0  0  0  0  0  0
   37.3228   40.2398   -8.5214 C   0  0  2  0  0  0  0  0  0  0  0  0
   37.1839   40.0590   -7.0682 N   0  0  0  0  0  0  0  0  0  0  0  0
   36.8200   37.5041  -12.4687 C   0  0  1  0  0  0  0  0  0  0  0  0
   39.5291   35.1313  -14.6504 C   0  0  1  0  0  0  0  0  0  0  0  0
   35.2859   41.3661  -14.1091 C   0  0  2  0  0  0  0  0  0  0  0  0
   34.3627   40.6821  -13.1921 N   0  0  0  0  0  0  0  0  0  0  0  0
   36.7672   41.6005   -8.9515 C   0  0  0  0  0  0  0  0  0  0  0  0
   37.7289   36.5254  -11.7236 C   0  0  2  0  0  0  0  0  0  0  0  0
   38.9388   37.1802  -11.3373 O   0  0  0  0  0  0  0  0  0  0  0  0
   40.6450   35.7563  -15.4941 C   0  0  2  0  0  0  0  0  0  0  0  0
   40.0871   36.9071  -16.2177 N   0  0  0  0  0  0  0  0  0  0  0  0
   35.7106   40.3911  -15.2100 C   0  0  1  0  0  0  0  0  0  0  0  0
   34.5648   40.0297  -15.9871 O   0  0  0  0  0  0  0  0  0  0  0  0
   37.0846   41.7848  -10.4393 C   0  0  2  0  0  0  0  0  0  0  0  0
   36.5115   43.0567  -10.9050 N   0  0  0  0  0  0  0  0  0  0  0  0
   38.0379   35.5485  -12.8563 C   0  0  2  0  0  0  0  0  0  0  0  0
   38.9398   36.1371  -13.8076 O   0  0  0  0  0  0  0  0  0  0  0  0
   41.1982   34.7510  -16.5127 C   0  0  1  0  0  0  0  0  0  0  0  0
   41.9516   33.7322  -15.8500 O   0  0  0  0  0  0  0  0  0  0  0  0
   36.7537   41.0510  -16.1138 C   0  0  2  0  0  0  0  0  0  0  0  0
   37.2280   40.1018  -17.0725 O   0  0  0  0  0  0  0  0  0  0  0  0
   36.5425   40.6477  -11.3143 C   0  0  2  0  0  0  0  0  0  0  0  0
   36.6598   35.4060  -13.4829 C   0  0  2  0  0  0  0  0  0  0  0  0
   35.9653   36.6509  -13.2523 O   0  0  0  0  0  0  0  0  0  0  0  0
   40.0673   34.0905  -17.3030 C   0  0  2  0  0  0  0  0  0  0  0  0
   39.4517   35.0746  -18.1390 O   0  0  0  0  0  0  0  0  0  0  0  0
   37.9223   41.5534  -15.2647 C   0  0  2  0  0  0  0  0  0  0  0  0
   37.4507   42.4852  -14.2714 O   0  0  0  0  0  0  0  0  0  0  0  0
   36.8664   39.2481  -10.7957 C   0  0  2  0  0  0  0  0  0  0  0  0
   36.0799   38.2817  -11.5115 O   0  0  0  0  0  0  0  0  0  0  0  0
   35.9214   34.2354  -12.8301 C   0  0  0  0  0  0  0  0  0  0  0  0
   36.6660   33.0345  -13.0456 O   0  0  0  0  0  0  0  0  0  0  0  0
   39.0469   33.5095  -16.3206 C   0  0  1  0  0  0  0  0  0  0  0  0
   38.5245   34.5838  -15.5192 O   0  0  0  0  0  0  0  0  0  0  0  0
   38.9139   42.2461  -16.2030 C   0  0  0  0  0  0  0  0  0  0  0  0
   39.5469   41.2570  -17.0873 O   0  0  0  0  0  0  0  0  0  0  0  0
   36.5853   39.1419   -9.2921 C   0  0  1  0  0  0  0  0  0  0  0  0
   36.9785   37.8547   -8.8109 O   0  0  0  0  0  0  0  0  0  0  0  0
   37.8896   32.8097  -17.0344 C   0  0  0  0  0  0  0  0  0  0  0  0
   37.1467   33.7950  -17.8324 N   0  0  0  0  0  0  0  0  0  0  0  0
  1  2  1  6  0  0  0
  1  7  1  0  0  0  0
  1 30  1  0  0  0  0
  3  4  1  1  0  0  0
  3  9  1  0  0  0  0
  3 39  1  0  0  0  0
  5 10  1  0  0  0  0
  5 26  1  0  0  0  0
  5 32  1  1  0  0  0
  6 12  1  0  0  0  0
  6 36  1  0  0  0  0
  6 19  1  1  0  0  0
  7  8  1  1  0  0  0
  7 14  1  0  0  0  0
  9 16  1  0  0  0  0
 10 11  1  6  0  0  0
 10 18  1  0  0  0  0
 12 13  1  6  0  0  0
 12 20  1  0  0  0  0
 14 15  1  6  0  0  0
 14 22  1  0  0  0  0
 16 17  1  6  0  0  0
 16 24  1  0  0  0  0
 18 19  1  6  0  0  0
 18 25  1  0  0  0  0
 20 21  1  1  0  0  0
 20 27  1  0  0  0  0
 22 23  1  6  0  0  0
 22 29  1  0  0  0  0
 24  2  1  6  0  0  0
 24 31  1  0  0  0  0
 25 26  1  0  0  0  0
 25 33  1  1  0  0  0
 27 28  1  6  0  0  0
 27 35  1  0  0  0  0
 29 30  1  0  0  0  0
 29 37  1  6  0  0  0
 31 32  1  6  0  0  0
 31 39  1  0  0  0  0
 33 34  1  0  0  0  0
 35 36  1  0  0  0  0
 35 41  1  6  0  0  0
 37 38  1  0  0  0  0
 39 40  1  1  0  0  0
 41 42  1  0  0  0  0
M  END
>  <CHROM.1>
-86.80357270,71.49355567,-170.93986205,163.62373624,-75.92127694,-60.39306018
-68.36059013,106.34096314,-63.45375258,37.63718698,38.02991602,-13.69187576
-3.00147159,-1.26830138,2.36393727

>  <Name>
3c44_lig

>  <RI>
224

>  <Rbt.Current_Directory>
/home/itssahil/PROJECTS/Mol_Feturizer/New_Systems/rnas/3c44

>  <Rbt.Executable>
rbdock ($Id: //depot/dev/client3/rdock/2013.1/src/exe/rbdock.cxx#4 $)

>  <Rbt.Library>
libRbt.so (2013.1, Build901 2013/11/27)

>  <Rbt.Parameter_File>
/export/apps/rDock/src/rDock_2013.1_src/data/scripts/dock_solv.prm

>  <Rbt.Receptor>
prm/pocket_docking_8.prm

>  <SCORE>
-23.7293

>  <SCORE.INTER>
-26.0745

>  <SCORE.INTER.CONST>
1

>  <SCORE.INTER.POLAR>
-3.76731

>  <SCORE.INTER.ROT>
9

>  <SCORE.INTER.SOLV>
14.6044

>  <SCORE.INTER.VDW>
-19.2934

>  <SCORE.INTER.norm>
-0.620821

>  <SCORE.INTRA>
2.34521

>  <SCORE.INTRA.DIHEDRAL>
-1.45374

>  <SCORE.INTRA.DIHEDRAL.0>
14.8538

>  <SCORE.INTRA.POLAR>
0

>  <SCORE.INTRA.POLAR.0>
0

>  <SCORE.INTRA.REPUL>
0.0147982

>  <SCORE.INTRA.REPUL.0>
0

>  <SCORE.INTRA.SOLV>
1.28114

>  <SCORE.INTRA.SOLV.lig_0>
-100.951

>  <SCORE.INTRA.VDW>
2.35752

>  <SCORE.INTRA.VDW.0>
-5.71388

>  <SCORE.INTRA.norm>
0.0558383

>  <SCORE.RESTR>
0

>  <SCORE.RESTR.CAVITY>
0

>  <SCORE.RESTR.norm>
0

>  <SCORE.SYSTEM>
0

>  <SCORE.SYSTEM.CONST>
0

>  <SCORE.SYSTEM.DIHEDRAL>
0

>  <SCORE.SYSTEM.SOLV>
0

>  <SCORE.SYSTEM.norm>
0

>  <SCORE.heavy>
42

>  <SCORE.norm>
-0.564983

>  <RMSD>
8.252

$$$$
3c44_lig
 OpenBabel11021811463D
libRbt.so/2013.1/901 2013/11/27
 42 45  0  0  0  0  0  0  0  0999 V2000
   39.2156   40.7397  -11.3595 C   0  0  2  0  0  0  0  0  0  0  0  0
   38.5158   40.9986  -12.5863 O   0  0  0  0  0  0  0  0  0  0  0  0
   39.5948   43.7109  -15.5306 C   0  0  2  0  0  0  0  0  0  0  0  0
   40.1636   44.5664  -16.5834 N   0  0  0  0  0  0  0  0  0  0  0  0
   37.2246   39.5364  -15.4260 C   0  0  1  0  0  0  0  0  0  0  0  0
   34.5524   36.6303  -14.3366 C   0  0  1  0  0  0  0  0  0  0  0  0
   39.9712   39.4125  -11.4844 C   0  0  2  0  0  0  0  0  0  0  0  0
   40.8487   39.4183  -12.6638 N   0  0  0  0  0  0  0  0  0  0  0  0
   40.5161   43.6750  -14.3079 C   0  0  0  0  0  0  0  0  0  0  0  0
   36.9323   38.9029  -14.0650 C   0  0  2  0  0  0  0  0  0  0  0  0
   37.4544   37.5734  -14.0231 O   0  0  0  0  0  0  0  0  0  0  0  0
   35.6776   35.5904  -14.3224 C   0  0  2  0  0  0  0  0  0  0  0  0
   36.0941   35.3422  -15.7095 N   0  0  0  0  0  0  0  0  0  0  0  0
   39.0053   38.2294  -11.5860 C   0  0  1  0  0  0  0  0  0  0  0  0
   39.7496   37.0082  -11.5406 O   0  0  0  0  0  0  0  0  0  0  0  0
   39.7931   42.8996  -13.2015 C   0  0  2  0  0  0  0  0  0  0  0  0
   40.6737   42.7908  -12.0286 N   0  0  0  0  0  0  0  0  0  0  0  0
   35.4083   38.8312  -14.1369 C   0  0  2  0  0  0  0  0  0  0  0  0
   34.9871   37.8026  -15.0477 O   0  0  0  0  0  0  0  0  0  0  0  0
   35.2030   34.2693  -13.7033 C   0  0  1  0  0  0  0  0  0  0  0  0
   35.0085   34.4196  -12.2945 O   0  0  0  0  0  0  0  0  0  0  0  0
   38.0138   38.2672  -10.4217 C   0  0  2  0  0  0  0  0  0  0  0  0
   37.0465   37.2260  -10.5803 O   0  0  0  0  0  0  0  0  0  0  0  0
   39.3690   41.4906  -13.6345 C   0  0  2  0  0  0  0  0  0  0  0  0
   35.0944   40.1956  -14.7301 C   0  0  2  0  0  0  0  0  0  0  0  0
   36.2258   40.5660  -15.5475 O   0  0  0  0  0  0  0  0  0  0  0  0
   33.8884   33.8075  -14.3344 C   0  0  2  0  0  0  0  0  0  0  0  0
   34.1322   33.4437  -15.6961 O   0  0  0  0  0  0  0  0  0  0  0  0
   37.3094   39.6245  -10.3930 C   0  0  2  0  0  0  0  0  0  0  0  0
   38.2778   40.6847  -10.2683 O   0  0  0  0  0  0  0  0  0  0  0  0
   38.6480   41.4383  -14.9799 C   0  0  2  0  0  0  0  0  0  0  0  0
   38.5590   40.0730  -15.4191 O   0  0  0  0  0  0  0  0  0  0  0  0
   34.8782   41.2051  -13.6006 C   0  0  0  0  0  0  0  0  0  0  0  0
   35.6720   40.8240  -12.4747 O   0  0  0  0  0  0  0  0  0  0  0  0
   32.8721   34.9501  -14.2599 C   0  0  1  0  0  0  0  0  0  0  0  0
   33.3982   36.0746  -14.9866 O   0  0  0  0  0  0  0  0  0  0  0  0
   36.3662   39.6328   -9.1873 C   0  0  0  0  0  0  0  0  0  0  0  0
   37.1386   39.5184   -7.9418 O   0  0  0  0  0  0  0  0  0  0  0  0
   39.3845   42.2791  -16.0296 C   0  0  1  0  0  0  0  0  0  0  0  0
   38.6467   42.2887  -17.2538 O   0  0  0  0  0  0  0  0  0  0  0  0
   31.5180   34.5600  -14.8538 C   0  0  0  0  0  0  0  0  0  0  0  0
   30.7245   35.7745  -15.0879 N   0  0  0  0  0  0  0  0  0  0  0  0
  1  2  1  6  0  0  0
  1  7  1  0  0  0  0
  1 30  1  0  0  0  0
  3  4  1  6  0  0  0
  3  9  1  0  0  0  0
  3 39  1  0  0  0  0
  5 10  1  0  0  0  0
  5 26  1  0  0  0  0
  5 32  1  1  0  0  0
  6 12  1  0  0  0  0
  6 36  1  0  0  0  0
  6 19  1  6  0  0  0
  7  8  1  6  0  0  0
  7 14  1  0  0  0  0
  9 16  1  0  0  0  0
 10 11  1  6  0  0  0
 10 18  1  0  0  0  0
 12 13  1  6  0  0  0
 12 20  1  0  0  0  0
 14 15  1  1  0  0  0
 14 22  1  0  0  0  0
 16 17  1  1  0  0  0
 16 24  1  0  0  0  0
 18 19  1  6  0  0  0
 18 25  1  0  0  0  0
 20 21  1  1  0  0  0
 20 27  1  0  0  0  0
 22 23  1  6  0  0  0
 22 29  1  0  0  0  0
 24  2  1  1  0  0  0
 24 31  1  0  0  0  0
 25 26  1  0  0  0  0
 25 33  1  1  0  0  0
 27 28  1  6  0  0  0
 27 35  1  0  0  0  0
 29 30  1  0  0  0  0
 29 37  1  1  0  0  0
 31 32  1  6  0  0  0
 31 39  1  0  0  0  0
 33 34  1  0  0  0  0
 35 36  1  0  0  0  0
 35 41  1  6  0  0  0
 37 38  1  0  0  0  0
 39 40  1  6  0  0  0
 41 42  1  0  0  0  0
M  END
>  <CHROM.1>
-77.70151854,-89.86369522,-99.43776885,102.50602128,-68.91119102,30.18827434
63.50783071,111.72658032,-164.66731392,36.97654747,38.93490455,-13.50092109
-0.28620085,0.85427634,2.04552238

>  <Name>
3c44_lig

>  <RI>
0

>  <Rbt.Current_Directory>
/home/itssahil/PROJECTS/Mol_Feturizer/New_Systems/rnas/3c44

>  <Rbt.Executable>
rbdock ($Id: //depot/dev/client3/rdock/2013.1/src/exe/rbdock.cxx#4 $)

>  <Rbt.Library>
libRbt.so (2013.1, Build901 2013/11/27)

>  <Rbt.Parameter_File>
/export/apps/rDock/src/rDock_2013.1_src/data/scripts/dock_solv.prm

>  <Rbt.Receptor>
prm/pocket_docking_4.prm

>  <SCORE>
4.23105

>  <SCORE.INTER>
-6.81493

>  <SCORE.INTER.CONST>
1

>  <SCORE.INTER.POLAR>
-0.485131

>  <SCORE.INTER.ROT>
9

>  <SCORE.INTER.SOLV>
13.9603

>  <SCORE.INTER.VDW>
-17.1796

>  <SCORE.INTER.norm>
-0.16226

>  <SCORE.INTRA>
10.946

>  <SCORE.INTRA.DIHEDRAL>
11.8356

>  <SCORE.INTRA.DIHEDRAL.0>
14.8538

>  <SCORE.INTRA.POLAR>
0

>  <SCORE.INTRA.POLAR.0>
0

>  <SCORE.INTRA.REPUL>
0.0149867

>  <SCORE.INTRA.REPUL.0>
0

>  <SCORE.INTRA.SOLV>
4.20514

>  <SCORE.INTRA.SOLV.lig_0>
-100.951

>  <SCORE.INTRA.VDW>
2.85072

>  <SCORE.INTRA.VDW.0>
-5.71388

>  <SCORE.INTRA.norm>
0.26062

>  <SCORE.RESTR>
0.0999391

>  <SCORE.RESTR.CAVITY>
0.0999391

>  <SCORE.RESTR.norm>
0.0023795

>  <SCORE.SYSTEM>
0

>  <SCORE.SYSTEM.CONST>
0

>  <SCORE.SYSTEM.DIHEDRAL>
0

>  <SCORE.SYSTEM.SOLV>
0

>  <SCORE.SYSTEM.norm>
0

>  <SCORE.heavy>
42

>  <SCORE.norm>
0.100739

>  <RMSD>
8.261

$$$$
3c44_lig
 OpenBabel11021811463D
libRbt.so/2013.1/901 2013/11/27
 42 45  0  0  0  0  0  0  0  0999 V2000
   36.3632   41.7456  -10.8332 C   0  0  2  0  0  0  0  0  0  0  0  0
   37.5729   42.5168  -10.7722 O   0  0  0  0  0  0  0  0  0  0  0  0
   40.4409   43.3892  -13.6363 C   0  0  2  0  0  0  0  0  0  0  0  0
   41.4937   43.4871  -14.6590 N   0  0  0  0  0  0  0  0  0  0  0  0
   37.3488   40.6401  -14.2201 C   0  0  1  0  0  0  0  0  0  0  0  0
   38.8057   36.7299  -15.0078 C   0  0  1  0  0  0  0  0  0  0  0  0
   35.4348   42.1794   -9.6940 C   0  0  2  0  0  0  0  0  0  0  0  0
   35.2014   43.6303   -9.7318 N   0  0  0  0  0  0  0  0  0  0  0  0
   40.9599   42.6558  -12.3961 C   0  0  0  0  0  0  0  0  0  0  0  0
   37.3732   39.5562  -13.1414 C   0  0  2  0  0  0  0  0  0  0  0  0
   38.6192   39.5905  -12.4428 O   0  0  0  0  0  0  0  0  0  0  0  0
   39.0436   35.9296  -13.7230 C   0  0  2  0  0  0  0  0  0  0  0  0
   40.1545   36.5526  -12.9902 N   0  0  0  0  0  0  0  0  0  0  0  0
   36.0150   41.8020   -8.3286 C   0  0  1  0  0  0  0  0  0  0  0  0
   35.0476   42.0814   -7.3120 O   0  0  0  0  0  0  0  0  0  0  0  0
   39.8702   42.7281  -11.3213 C   0  0  2  0  0  0  0  0  0  0  0  0
   40.3084   41.9800  -10.1333 N   0  0  0  0  0  0  0  0  0  0  0  0
   37.3391   38.3119  -14.0265 C   0  0  2  0  0  0  0  0  0  0  0  0
   38.6026   38.1163  -14.6826 O   0  0  0  0  0  0  0  0  0  0  0  0
   39.4118   34.4738  -14.0376 C   0  0  1  0  0  0  0  0  0  0  0  0
   38.2745   33.7691  -14.5424 O   0  0  0  0  0  0  0  0  0  0  0  0
   36.3641   40.3128   -8.3066 C   0  0  2  0  0  0  0  0  0  0  0  0
   37.0063   39.9881   -7.0708 O   0  0  0  0  0  0  0  0  0  0  0  0
   38.5237   42.1645  -11.7924 C   0  0  2  0  0  0  0  0  0  0  0  0
   36.2939   38.7280  -15.0494 C   0  0  2  0  0  0  0  0  0  0  0  0
   36.3687   40.1658  -15.1619 O   0  0  0  0  0  0  0  0  0  0  0  0
   40.5341   34.4024  -15.0744 C   0  0  2  0  0  0  0  0  0  0  0  0
   41.7371   34.9086  -14.4888 O   0  0  0  0  0  0  0  0  0  0  0  0
   37.2985   39.9887   -9.4733 C   0  0  2  0  0  0  0  0  0  0  0  0
   36.6751   40.3443  -10.7231 O   0  0  0  0  0  0  0  0  0  0  0  0
   38.0667   42.6866  -13.1529 C   0  0  2  0  0  0  0  0  0  0  0  0
   36.9661   41.8911  -13.6225 O   0  0  0  0  0  0  0  0  0  0  0  0
   34.9090   38.2851  -14.5725 C   0  0  0  0  0  0  0  0  0  0  0  0
   34.4203   39.2284  -13.6163 O   0  0  0  0  0  0  0  0  0  0  0  0
   40.1394   35.2399  -16.2937 C   0  0  1  0  0  0  0  0  0  0  0  0
   39.9488   36.6008  -15.8681 O   0  0  0  0  0  0  0  0  0  0  0  0
   37.5802   38.4844   -9.4384 C   0  0  0  0  0  0  0  0  0  0  0  0
   36.3450   37.7334   -9.7053 O   0  0  0  0  0  0  0  0  0  0  0  0
   39.2139   42.6454  -14.1695 C   0  0  1  0  0  0  0  0  0  0  0  0
   38.7907   43.2200  -15.4079 O   0  0  0  0  0  0  0  0  0  0  0  0
   41.2044   35.2034  -17.3904 C   0  0  0  0  0  0  0  0  0  0  0  0
   40.7583   36.0233  -18.5255 N   0  0  0  0  0  0  0  0  0  0  0  0
  1  2  1  1  0  0  0
  1  7  1  0  0  0  0
  1 30  1  0  0  0  0
  3  4  1  6  0  0  0
  3  9  1  0  0  0  0
  3 39  1  0  0  0  0
  5 10  1  0  0  0  0
  5 26  1  0  0  0  0
  5 32  1  1  0  0  0
  6 12  1  0  0  0  0
  6 36  1  0  0  0  0
  6 19  1  1  0  0  0
  7  8  1  1  0  0  0
  7 14  1  0  0  0  0
  9 16  1  0  0  0  0
 10 11  1  6  0  0  0
 10 18  1  0  0  0  0
 12 13  1  6  0  0  0
 12 20  1  0  0  0  0
 14 15  1  1  0  0  0
 14 22  1  0  0  0  0
 16 17  1  1  0  0  0
 16 24  1  0  0  0  0
 18 19  1  6  0  0  0
 18 25  1  0  0  0  0
 20 21  1  6  0  0  0
 20 27  1  0  0  0  0
 22 23  1  1  0  0  0
 22 29  1  0  0  0  0
 24  2  1  1  0  0  0
 24 31  1  0  0  0  0
 25 26  1  0  0  0  0
 25 33  1  1  0  0  0
 27 28  1  1  0  0  0
 27 35  1  0  0  0  0
 29 30  1  0  0  0  0
 29 37  1  6  0  0  0
 31 32  1  6  0  0  0
 31 39  1  0  0  0  0
 33 34  1  0  0  0  0
 35 36  1  0  0  0  0
 35 41  1  6  0  0  0
 37 38  1  0  0  0  0
 39 40  1  6  0  0  0
 41 42  1  0  0  0  0
M  END
>  <CHROM.1>
178.95830074,90.94459926,-70.35417335,154.20377601,-162.36040392,80.74121711
65.53364929,-80.37004726,179.88585128,38.13821072,39.51121570,-12.76569194
2.24450074,1.00884901,0.15733168

>  <Name>
3c44_lig

>  <RI>
0

>  <Rbt.Current_Directory>
/home/itssahil/PROJECTS/Mol_Feturizer/New_Systems/rnas/3c44

>  <Rbt.Executable>
rbdock ($Id: //depot/dev/client3/rdock/2013.1/src/exe/rbdock.cxx#4 $)

>  <Rbt.Library>
libRbt.so (2013.1, Build901 2013/11/27)

>  <Rbt.Parameter_File>
/export/apps/rDock/src/rDock_2013.1_src/data/scripts/dock_solv.prm

>  <Rbt.Receptor>
prm/pocket_docking_7.prm

>  <SCORE>
-13.2286

>  <SCORE.INTER>
-14.4693

>  <SCORE.INTER.CONST>
1

>  <SCORE.INTER.POLAR>
-2.23778

>  <SCORE.INTER.ROT>
9

>  <SCORE.INTER.SOLV>
15.0128

>  <SCORE.INTER.VDW>
-16.7912

>  <SCORE.INTER.norm>
-0.344508

>  <SCORE.INTRA>
1.2407

>  <SCORE.INTRA.DIHEDRAL>
-2.8263

>  <SCORE.INTRA.DIHEDRAL.0>
14.8538

>  <SCORE.INTRA.POLAR>
0

>  <SCORE.INTRA.POLAR.0>
0

>  <SCORE.INTRA.REPUL>
0

>  <SCORE.INTRA.REPUL.0>
0

>  <SCORE.INTRA.SOLV>
-1.31541

>  <SCORE.INTRA.SOLV.lig_0>
-100.951

>  <SCORE.INTRA.VDW>
3.31156

>  <SCORE.INTRA.VDW.0>
-5.71388

>  <SCORE.INTRA.norm>
0.0295405

>  <SCORE.RESTR>
0

>  <SCORE.RESTR.CAVITY>
0

>  <SCORE.RESTR.norm>
0

>  <SCORE.SYSTEM>
0

>  <SCORE.SYSTEM.CONST>
0

>  <SCORE.SYSTEM.DIHEDRAL>
0

>  <SCORE.SYSTEM.SOLV>
0

>  <SCORE.SYSTEM.norm>
0

>  <SCORE.heavy>
42

>  <SCORE.norm>
-0.314967

>  <RMSD>
8.268

$$$$
3c44_lig
 OpenBabel11021811463D
libRbt.so/2013.1/901 2013/11/27
 42 45  0  0  0  0  0  0  0  0999 V2000
   35.4958   41.5139  -12.4221 C   0  0  2  0  0  0  0  0  0  0  0  0
   36.4713   40.5385  -12.0238 O   0  0  0  0  0  0  0  0  0  0  0  0
   37.9759   39.9755   -8.2016 C   0  0  2  0  0  0  0  0  0  0  0  0
   38.3055   39.7452   -6.7866 N   0  0  0  0  0  0  0  0  0  0  0  0
   37.1815   37.2764  -12.1334 C   0  0  1  0  0  0  0  0  0  0  0  0
   39.6096   35.9873  -15.2933 C   0  0  1  0  0  0  0  0  0  0  0  0
   34.6942   40.9656  -13.6073 C   0  0  2  0  0  0  0  0  0  0  0  0
   34.1085   39.6569  -13.2830 N   0  0  0  0  0  0  0  0  0  0  0  0
   36.9569   41.1101   -8.3406 C   0  0  0  0  0  0  0  0  0  0  0  0
   38.5942   36.7890  -11.8082 C   0  0  2  0  0  0  0  0  0  0  0  0
   39.5027   37.8919  -11.8053 O   0  0  0  0  0  0  0  0  0  0  0  0
   40.0390   36.9253  -16.4262 C   0  0  2  0  0  0  0  0  0  0  0  0
   38.8955   37.7786  -16.7774 N   0  0  0  0  0  0  0  0  0  0  0  0
   35.5702   40.8257  -14.8548 C   0  0  1  0  0  0  0  0  0  0  0  0
   34.7487   40.4644  -15.9692 O   0  0  0  0  0  0  0  0  0  0  0  0
   36.7801   41.3980   -9.8353 C   0  0  2  0  0  0  0  0  0  0  0  0
   35.7606   42.4431  -10.0121 N   0  0  0  0  0  0  0  0  0  0  0  0
   38.8621   35.9338  -13.0450 C   0  0  2  0  0  0  0  0  0  0  0  0
   39.0839   36.7598  -14.1998 O   0  0  0  0  0  0  0  0  0  0  0  0
   40.4666   36.1333  -17.6688 C   0  0  1  0  0  0  0  0  0  0  0  0
   41.7109   35.4690  -17.4336 O   0  0  0  0  0  0  0  0  0  0  0  0
   36.2732   42.1526  -15.1468 C   0  0  2  0  0  0  0  0  0  0  0  0
   37.1736   41.9876  -16.2455 O   0  0  0  0  0  0  0  0  0  0  0  0
   36.3650   40.1601  -10.6402 C   0  0  2  0  0  0  0  0  0  0  0  0
   37.5278   35.2174  -13.1809 C   0  0  2  0  0  0  0  0  0  0  0  0
   36.5217   36.1027  -12.6429 O   0  0  0  0  0  0  0  0  0  0  0  0
   39.4145   35.0880  -18.0433 C   0  0  2  0  0  0  0  0  0  0  0  0
   38.2347   35.7603  -18.4930 O   0  0  0  0  0  0  0  0  0  0  0  0
   37.0489   42.6044  -13.9085 C   0  0  2  0  0  0  0  0  0  0  0  0
   36.1565   42.7406  -12.7851 O   0  0  0  0  0  0  0  0  0  0  0  0
   37.2074   38.9176  -10.3591 C   0  0  2  0  0  0  0  0  0  0  0  0
   36.5638   37.7671  -10.9308 O   0  0  0  0  0  0  0  0  0  0  0  0
   37.5745   33.9007  -12.4026 C   0  0  0  0  0  0  0  0  0  0  0  0
   38.6010   33.0703  -12.9500 O   0  0  0  0  0  0  0  0  0  0  0  0
   39.1053   34.2302  -16.8134 C   0  0  1  0  0  0  0  0  0  0  0  0
   38.5984   35.0885  -15.7763 O   0  0  0  0  0  0  0  0  0  0  0  0
   37.6935   43.9548  -14.2316 C   0  0  0  0  0  0  0  0  0  0  0  0
   38.4843   44.4236  -13.0845 O   0  0  0  0  0  0  0  0  0  0  0  0
   37.3994   38.7150   -8.8514 C   0  0  1  0  0  0  0  0  0  0  0  0
   38.2628   37.6009   -8.6138 O   0  0  0  0  0  0  0  0  0  0  0  0
   38.0729   33.1422  -17.1113 C   0  0  0  0  0  0  0  0  0  0  0  0
   38.6153   32.2245  -18.1229 N   0  0  0  0  0  0  0  0  0  0  0  0
  1  2  1  6  0  0  0
  1  7  1  0  0  0  0
  1 30  1  0  0  0  0
  3  4  1  1  0  0  0
  3  9  1  0  0  0  0
  3 39  1  0  0  0  0
  5 10  1  0  0  0  0
  5 26  1  0  0  0  0
  5 32  1  1  0  0  0
  6 12  1  0  0  0  0
  6 36  1  0  0  0  0
  6 19  1  1  0  0  0
  7  8  1  1  0  0  0
  7 14  1  0  0  0  0
  9 16  1  0  0  0  0
 10 11  1  6  0  0  0
 10 18  1  0  0  0  0
 12 13  1  6  0  0  0
 12 20  1  0  0  0  0
 14 15  1  6  0  0  0
 14 22  1  0  0  0  0
 16 17  1  1  0  0  0
 16 24  1  0  0  0  0
 18 19  1  6  0  0  0
 18 25  1  0  0  0  0
 20 21  1  1  0  0  0
 20 27  1  0  0  0  0
 22 23  1  6  0  0  0
 22 29  1  0  0  0  0
 24  2  1  6  0  0  0
 24 31  1  0  0  0  0
 25 26  1  0  0  0  0
 25 33  1  1  0  0  0
 27 28  1  1  0  0  0
 27 35  1  0  0  0  0
 29 30  1  0  0  0  0
 29 37  1  6  0  0  0
 31 32  1  1  0  0  0
 31 39  1  0  0  0  0
 33 34  1  0  0  0  0
 35 36  1  0  0  0  0
 35 41  1  6  0  0  0
 37 38  1  0  0  0  0
 39 40  1  6  0  0  0
 41 42  1  0  0  0  0
M  END
>  <CHROM.1>
-123.72790574,63.88643890,-171.18131210,167.84946277,-68.31791001,-61.05214561
-178.54162164,105.08935095,62.59659475,37.66918682,38.33594321,-13.40907326
2.68965555,-1.27188581,1.79448573

>  <Name>
3c44_lig

>  <RI>
224

>  <Rbt.Current_Directory>
/home/itssahil/PROJECTS/Mol_Feturizer/New_Systems/rnas/3c44

>  <Rbt.Executable>
rbdock ($Id: //depot/dev/client3/rdock/2013.1/src/exe/rbdock.cxx#4 $)

>  <Rbt.Library>
libRbt.so (2013.1, Build901 2013/11/27)

>  <Rbt.Parameter_File>
/export/apps/rDock/src/rDock_2013.1_src/data/scripts/dock_solv.prm

>  <Rbt.Receptor>
prm/pocket_docking_8.prm

>  <SCORE>
-16.7013

>  <SCORE.INTER>
-19.1849

>  <SCORE.INTER.CONST>
1

>  <SCORE.INTER.POLAR>
-2.29985

>  <SCORE.INTER.ROT>
9

>  <SCORE.INTER.SOLV>
18.3695

>  <SCORE.INTER.VDW>
-20.8469

>  <SCORE.INTER.norm>
-0.456782

>  <SCORE.INTRA>
2.48357

>  <SCORE.INTRA.DIHEDRAL>
0.371066

>  <SCORE.INTRA.DIHEDRAL.0>
14.8538

>  <SCORE.INTRA.POLAR>
0

>  <SCORE.INTRA.POLAR.0>
0

>  <SCORE.INTRA.REPUL>
0

>  <SCORE.INTRA.REPUL.0>
0

>  <SCORE.INTRA.SOLV>
-1.75996

>  <SCORE.INTRA.SOLV.lig_0>
-100.951

>  <SCORE.INTRA.VDW>
3.17802

>  <SCORE.INTRA.VDW.0>
-5.71388

>  <SCORE.INTRA.norm>
0.0591327

>  <SCORE.RESTR>
0

>  <SCORE.RESTR.CAVITY>
0

>  <SCORE.RESTR.norm>
0

>  <SCORE.SYSTEM>
0

>  <SCORE.SYSTEM.CONST>
0

>  <SCORE.SYSTEM.DIHEDRAL>
0

>  <SCORE.SYSTEM.SOLV>
0

>  <SCORE.SYSTEM.norm>
0

>  <SCORE.heavy>
42

>  <SCORE.norm>
-0.39765

>  <RMSD>
8.286

$$$$
3c44_lig
 OpenBabel11021811463D
libRbt.so/2013.1/901 2013/11/27
 42 45  0  0  0  0  0  0  0  0999 V2000
   39.4687   41.1101  -10.8463 C   0  0  2  0  0  0  0  0  0  0  0  0
   38.8684   42.0034  -11.7968 O   0  0  0  0  0  0  0  0  0  0  0  0
   39.4403   46.0505  -12.4923 C   0  0  2  0  0  0  0  0  0  0  0  0
   39.8529   47.4437  -12.7214 N   0  0  0  0  0  0  0  0  0  0  0  0
   38.9092   42.0299  -15.1288 C   0  0  1  0  0  0  0  0  0  0  0  0
   36.4136   39.8633  -17.7230 C   0  0  1  0  0  0  0  0  0  0  0  0
   39.7874   39.7814  -11.5397 C   0  0  2  0  0  0  0  0  0  0  0  0
   40.6149   39.9994  -12.7350 N   0  0  0  0  0  0  0  0  0  0  0  0
   40.0117   45.5289  -11.1706 C   0  0  0  0  0  0  0  0  0  0  0  0
   39.4470   41.6204  -16.5007 C   0  0  2  0  0  0  0  0  0  0  0  0
   39.2000   42.6580  -17.4515 O   0  0  0  0  0  0  0  0  0  0  0  0
   35.0982   40.4441  -18.2522 C   0  0  2  0  0  0  0  0  0  0  0  0
   34.4271   41.1463  -17.1497 N   0  0  0  0  0  0  0  0  0  0  0  0
   38.5086   39.0441  -11.9449 C   0  0  1  0  0  0  0  0  0  0  0  0
   38.8501   37.7461  -12.4410 O   0  0  0  0  0  0  0  0  0  0  0  0
   39.4184   44.1380  -10.9225 C   0  0  2  0  0  0  0  0  0  0  0  0
   39.9921   43.5773   -9.6898 N   0  0  0  0  0  0  0  0  0  0  0  0
   38.5176   40.4461  -16.8010 C   0  0  2  0  0  0  0  0  0  0  0  0
   37.1948   40.9091  -17.1188 O   0  0  0  0  0  0  0  0  0  0  0  0
   34.1724   39.3358  -18.7705 C   0  0  1  0  0  0  0  0  0  0  0  0
   34.6868   38.7829  -19.9848 O   0  0  0  0  0  0  0  0  0  0  0  0
   37.5855   38.9016  -10.7333 C   0  0  2  0  0  0  0  0  0  0  0  0
   36.3477   38.3116  -11.1392 O   0  0  0  0  0  0  0  0  0  0  0  0
   39.6747   43.1612  -12.0768 C   0  0  2  0  0  0  0  0  0  0  0  0
   38.5021   39.7520  -15.4482 C   0  0  2  0  0  0  0  0  0  0  0  0
   38.7064   40.7762  -14.4508 O   0  0  0  0  0  0  0  0  0  0  0  0
   34.0291   38.2133  -17.7414 C   0  0  2  0  0  0  0  0  0  0  0  0
   33.3127   38.7135  -16.6088 O   0  0  0  0  0  0  0  0  0  0  0  0
   37.3238   40.2799  -10.1242 C   0  0  2  0  0  0  0  0  0  0  0  0
   38.5681   40.8993   -9.7429 O   0  0  0  0  0  0  0  0  0  0  0  0
   39.3439   43.7220  -13.4584 C   0  0  2  0  0  0  0  0  0  0  0  0
   39.8852   42.8531  -14.4667 O   0  0  0  0  0  0  0  0  0  0  0  0
   39.6181   38.7063  -15.3989 C   0  0  0  0  0  0  0  0  0  0  0  0
   39.3618   37.7024  -16.3836 O   0  0  0  0  0  0  0  0  0  0  0  0
   35.4238   37.7387  -17.3250 C   0  0  1  0  0  0  0  0  0  0  0  0
   36.1281   38.8507  -16.7449 O   0  0  0  0  0  0  0  0  0  0  0  0
   36.4383   40.0821   -8.8913 C   0  0  0  0  0  0  0  0  0  0  0  0
   36.0531   41.3860   -8.3324 O   0  0  0  0  0  0  0  0  0  0  0  0
   39.9117   45.1364  -13.6261 C   0  0  1  0  0  0  0  0  0  0  0  0
   39.5154   45.6758  -14.8891 O   0  0  0  0  0  0  0  0  0  0  0  0
   35.3675   36.5973  -16.3088 C   0  0  0  0  0  0  0  0  0  0  0  0
   34.8726   35.3830  -16.9721 N   0  0  0  0  0  0  0  0  0  0  0  0
  1  2  1  6  0  0  0
  1  7  1  0  0  0  0
  1 30  1  0  0  0  0
  3  4  1  6  0  0  0
  3  9  1  0  0  0  0
  3 39  1  0  0  0  0
  5 10  1  0  0  0  0
  5 26  1  0  0  0  0
  5 32  1  1  0  0  0
  6 12  1  0  0  0  0
  6 36  1  0  0  0  0
  6 19  1  1  0  0  0
  7  8  1  6  0  0  0
  7 14  1  0  0  0  0
  9 16  1  0  0  0  0
 10 11  1  6  0  0  0
 10 18  1  0  0  0  0
 12 13  1  1  0  0  0
 12 20  1  0  0  0  0
 14 15  1  1  0  0  0
 14 22  1  0  0  0  0
 16 17  1  1  0  0  0
 16 24  1  0  0  0  0
 18 19  1  1  0  0  0
 18 25  1  0  0  0  0
 20 21  1  6  0  0  0
 20 27  1  0  0  0  0
 22 23  1  6  0  0  0
 22 29  1  0  0  0  0
 24  2  1  1  0  0  0
 24 31  1  0  0  0  0
 25 26  1  0  0  0  0
 25 33  1  6  0  0  0
 27 28  1  1  0  0  0
 27 35  1  0  0  0  0
 29 30  1  0  0  0  0
 29 37  1  1  0  0  0
 31 32  1  6  0  0  0
 31 39  1  0  0  0  0
 33 34  1  0  0  0  0
 35 36  1  0  0  0  0
 35 41  1  1  0  0  0
 37 38  1  0  0  0  0
 39 40  1  6  0  0  0
 41 42  1  0  0  0  0
M  END
>  <CHROM.1>
-114.79907193,156.41167924,-170.94476256,165.44929637,-80.89459824,-63.36228343
-174.92437621,104.58276956,70.06613816,37.81630417,40.84560864,-14.15104986
0.46888092,1.06310755,1.95845705

>  <Name>
3c44_lig

>  <RI>
224

>  <Rbt.Current_Directory>
/home/itssahil/PROJECTS/Mol_Feturizer/New_Systems/rnas/3c44

>  <Rbt.Executable>
rbdock ($Id: //depot/dev/client3/rdock/2013.1/src/exe/rbdock.cxx#4 $)

>  <Rbt.Library>
libRbt.so (2013.1, Build901 2013/11/27)

>  <Rbt.Parameter_File>
/export/apps/rDock/src/rDock_2013.1_src/data/scripts/dock_solv.prm

>  <Rbt.Receptor>
prm/pocket_docking_8.prm

>  <SCORE>
-10.7315

>  <SCORE.INTER>
-13.5714

>  <SCORE.INTER.CONST>
1

>  <SCORE.INTER.POLAR>
-2.35858

>  <SCORE.INTER.ROT>
9

>  <SCORE.INTER.SOLV>
10.7831

>  <SCORE.INTER.VDW>
-14.38

>  <SCORE.INTER.norm>
-0.323129

>  <SCORE.INTRA>
2.83995

>  <SCORE.INTRA.DIHEDRAL>
4.84199

>  <SCORE.INTRA.DIHEDRAL.0>
14.8538

>  <SCORE.INTRA.POLAR>
0

>  <SCORE.INTRA.POLAR.0>
0

>  <SCORE.INTRA.REPUL>
0.00781765

>  <SCORE.INTRA.REPUL.0>
0

>  <SCORE.INTRA.SOLV>
1.18065

>  <SCORE.INTRA.SOLV.lig_0>
-100.951

>  <SCORE.INTRA.VDW>
-0.210462

>  <SCORE.INTRA.VDW.0>
-5.71388

>  <SCORE.INTRA.norm>
0.0676178

>  <SCORE.RESTR>
0

>  <SCORE.RESTR.CAVITY>
0

>  <SCORE.RESTR.norm>
0

>  <SCORE.SYSTEM>
0

>  <SCORE.SYSTEM.CONST>
0

>  <SCORE.SYSTEM.DIHEDRAL>
0

>  <SCORE.SYSTEM.SOLV>
0

>  <SCORE.SYSTEM.norm>
0

>  <SCORE.heavy>
42

>  <SCORE.norm>
-0.255511

>  <RMSD>
8.323

$$$$
3c44_lig
 OpenBabel11021811463D
libRbt.so/2013.1/901 2013/11/27
 42 45  0  0  0  0  0  0  0  0999 V2000
   37.0616   40.6569  -11.6524 C   0  0  2  0  0  0  0  0  0  0  0  0
   38.4587   40.8109  -11.9459 O   0  0  0  0  0  0  0  0  0  0  0  0
   40.4497   41.3204  -15.5468 C   0  0  2  0  0  0  0  0  0  0  0  0
   41.0855   41.3044  -16.8732 N   0  0  0  0  0  0  0  0  0  0  0  0
   36.4086   40.0880  -14.9588 C   0  0  1  0  0  0  0  0  0  0  0  0
   33.9209   36.7088  -15.2956 C   0  0  1  0  0  0  0  0  0  0  0  0
   36.8329   40.9097  -10.1585 C   0  0  2  0  0  0  0  0  0  0  0  0
   37.3694   42.2192   -9.7605 N   0  0  0  0  0  0  0  0  0  0  0  0
   40.8992   40.1134  -14.7183 C   0  0  0  0  0  0  0  0  0  0  0  0
   34.8840   40.0042  -14.8711 C   0  0  2  0  0  0  0  0  0  0  0  0
   34.4941   39.5437  -13.5759 O   0  0  0  0  0  0  0  0  0  0  0  0
   34.3540   35.4136  -14.6009 C   0  0  2  0  0  0  0  0  0  0  0  0
   35.5313   34.8847  -15.3033 N   0  0  0  0  0  0  0  0  0  0  0  0
   37.4863   39.8211   -9.3033 C   0  0  1  0  0  0  0  0  0  0  0  0
   37.1140   40.0102   -7.9347 O   0  0  0  0  0  0  0  0  0  0  0  0
   40.3262   40.2772  -13.3066 C   0  0  2  0  0  0  0  0  0  0  0  0
   40.6863   39.1038  -12.4964 N   0  0  0  0  0  0  0  0  0  0  0  0
   34.6290   38.8920  -15.8864 C   0  0  2  0  0  0  0  0  0  0  0  0
   35.0343   37.6172  -15.3612 O   0  0  0  0  0  0  0  0  0  0  0  0
   33.2374   34.3622  -14.6438 C   0  0  1  0  0  0  0  0  0  0  0  0
   32.1623   34.7402  -13.7799 O   0  0  0  0  0  0  0  0  0  0  0  0
   37.0206   38.4420   -9.7738 C   0  0  2  0  0  0  0  0  0  0  0  0
   37.7162   37.4261   -9.0464 O   0  0  0  0  0  0  0  0  0  0  0  0
   38.8011   40.4393  -13.2926 C   0  0  2  0  0  0  0  0  0  0  0  0
   35.5784   39.3090  -16.9985 C   0  0  2  0  0  0  0  0  0  0  0  0
   36.6768   40.0054  -16.3708 O   0  0  0  0  0  0  0  0  0  0  0  0
   32.6923   34.1969  -16.0634 C   0  0  2  0  0  0  0  0  0  0  0  0
   33.7065   33.6078  -16.8822 O   0  0  0  0  0  0  0  0  0  0  0  0
   37.3025   38.2892  -11.2693 C   0  0  2  0  0  0  0  0  0  0  0  0
   36.6342   39.3294  -12.0100 O   0  0  0  0  0  0  0  0  0  0  0  0
   38.2711   41.4731  -14.2841 C   0  0  2  0  0  0  0  0  0  0  0  0
   36.8449   41.3376  -14.3959 O   0  0  0  0  0  0  0  0  0  0  0  0
   34.8415   40.2190  -17.9836 C   0  0  0  0  0  0  0  0  0  0  0  0
   33.7583   39.4935  -18.5694 O   0  0  0  0  0  0  0  0  0  0  0  0
   32.2970   35.5720  -16.6081 C   0  0  1  0  0  0  0  0  0  0  0  0
   33.4675   36.4080  -16.6250 O   0  0  0  0  0  0  0  0  0  0  0  0
   36.7777   36.9181  -11.7029 C   0  0  0  0  0  0  0  0  0  0  0  0
   37.0847   36.6860  -13.1217 O   0  0  0  0  0  0  0  0  0  0  0  0
   38.9233   41.2973  -15.6605 C   0  0  1  0  0  0  0  0  0  0  0  0
   38.4810   42.3281  -16.5464 O   0  0  0  0  0  0  0  0  0  0  0  0
   31.7200   35.4906  -18.0219 C   0  0  0  0  0  0  0  0  0  0  0  0
   31.2457   36.8208  -18.4282 N   0  0  0  0  0  0  0  0  0  0  0  0
  1  2  1  1  0  0  0
  1  7  1  0  0  0  0
  1 30  1  0  0  0  0
  3  4  1  6  0  0  0
  3  9  1  0  0  0  0
  3 39  1  0  0  0  0
  5 10  1  0  0  0  0
  5 26  1  0  0  0  0
  5 32  1  6  0  0  0
  6 12  1  0  0  0  0
  6 36  1  0  0  0  0
  6 19  1  6  0  0  0
  7  8  1  1  0  0  0
  7 14  1  0  0  0  0
  9 16  1  0  0  0  0
 10 11  1  1  0  0  0
 10 18  1  0  0  0  0
 12 13  1  6  0  0  0
 12 20  1  0  0  0  0
 14 15  1  1  0  0  0
 14 22  1  0  0  0  0
 16 17  1  1  0  0  0
 16 24  1  0  0  0  0
 18 19  1  1  0  0  0
 18 25  1  0  0  0  0
 20 21  1  1  0  0  0
 20 27  1  0  0  0  0
 22 23  1  1  0  0  0
 22 29  1  0  0  0  0
 24  2  1  1  0  0  0
 24 31  1  0  0  0  0
 25 26  1  0  0  0  0
 25 33  1  6  0  0  0
 27 28  1  6  0  0  0
 27 35  1  0  0  0  0
 29 30  1  0  0  0  0
 29 37  1  6  0  0  0
 31 32  1  6  0  0  0
 31 39  1  0  0  0  0
 33 34  1  0  0  0  0
 35 36  1  0  0  0  0
 35 41  1  6  0  0  0
 37 38  1  0  0  0  0
 39 40  1  6  0  0  0
 41 42  1  0  0  0  0
M  END
>  <CHROM.1>
173.05994927,173.43154279,-174.24120117,119.62063877,-164.17535157,-61.76228528
-177.06363011,-64.81292293,174.61224925,36.22209715,38.65276891,-14.18260845
0.38569662,0.79151161,1.83126871

>  <Name>
3c44_lig

>  <RI>
0

>  <Rbt.Current_Directory>
/home/itssahil/PROJECTS/Mol_Feturizer/New_Systems/rnas/3c44

>  <Rbt.Executable>
rbdock ($Id: //depot/dev/client3/rdock/2013.1/src/exe/rbdock.cxx#4 $)

>  <Rbt.Library>
libRbt.so (2013.1, Build901 2013/11/27)

>  <Rbt.Parameter_File>
/export/apps/rDock/src/rDock_2013.1_src/data/scripts/dock_solv.prm

>  <Rbt.Receptor>
prm/pocket_docking_5.prm

>  <SCORE>
-10.094

>  <SCORE.INTER>
-7.22118

>  <SCORE.INTER.CONST>
1

>  <SCORE.INTER.POLAR>
-1.07058

>  <SCORE.INTER.ROT>
9

>  <SCORE.INTER.SOLV>
8.6107

>  <SCORE.INTER.VDW>
-13.7158

>  <SCORE.INTER.norm>
-0.171933

>  <SCORE.INTRA>
-2.87286

>  <SCORE.INTRA.DIHEDRAL>
-5.77537

>  <SCORE.INTRA.DIHEDRAL.0>
14.8538

>  <SCORE.INTRA.POLAR>
0

>  <SCORE.INTRA.POLAR.0>
0

>  <SCORE.INTRA.REPUL>
0.0016006

>  <SCORE.INTRA.REPUL.0>
0

>  <SCORE.INTRA.SOLV>
-2.13814

>  <SCORE.INTRA.SOLV.lig_0>
-100.951

>  <SCORE.INTRA.VDW>
1.07589

>  <SCORE.INTRA.VDW.0>
-5.71388

>  <SCORE.INTRA.norm>
-0.0684015

>  <SCORE.RESTR>
0

>  <SCORE.RESTR.CAVITY>
0

>  <SCORE.RESTR.norm>
0

>  <SCORE.SYSTEM>
0

>  <SCORE.SYSTEM.CONST>
0

>  <SCORE.SYSTEM.DIHEDRAL>
0

>  <SCORE.SYSTEM.SOLV>
0

>  <SCORE.SYSTEM.norm>
0

>  <SCORE.heavy>
42

>  <SCORE.norm>
-0.240334

>  <RMSD>
8.326

$$$$
3c44_lig
 OpenBabel11021811463D
libRbt.so/2013.1/901 2013/11/27
 42 45  0  0  0  0  0  0  0  0999 V2000
   38.1434   42.2153  -13.6552 C   0  0  2  0  0  0  0  0  0  0  0  0
   37.9463   41.8400  -15.0271 O   0  0  0  0  0  0  0  0  0  0  0  0
   35.0633   39.2200  -16.4461 C   0  0  2  0  0  0  0  0  0  0  0  0
   34.1704   38.1345  -16.8798 N   0  0  0  0  0  0  0  0  0  0  0  0
   36.4573   39.1251  -12.5267 C   0  0  1  0  0  0  0  0  0  0  0  0
   38.3969   35.4852  -12.6463 C   0  0  1  0  0  0  0  0  0  0  0  0
   37.8098   43.7017  -13.4897 C   0  0  2  0  0  0  0  0  0  0  0  0
   36.4560   43.9929  -13.9831 N   0  0  0  0  0  0  0  0  0  0  0  0
   36.4572   39.0489  -17.0569 C   0  0  0  0  0  0  0  0  0  0  0  0
   37.9409   38.7927  -12.6932 C   0  0  2  0  0  0  0  0  0  0  0  0
   38.1858   38.3002  -14.0120 O   0  0  0  0  0  0  0  0  0  0  0  0
   38.6666   35.6466  -14.1460 C   0  0  2  0  0  0  0  0  0  0  0  0
   37.3829   35.5680  -14.8568 N   0  0  0  0  0  0  0  0  0  0  0  0
   38.8140   44.5840  -14.2355 C   0  0  1  0  0  0  0  0  0  0  0  0
   38.5579   45.9567  -13.9235 O   0  0  0  0  0  0  0  0  0  0  0  0
   37.2817   40.2879  -16.6923 C   0  0  2  0  0  0  0  0  0  0  0  0
   38.6491   40.1321  -17.2108 N   0  0  0  0  0  0  0  0  0  0  0  0
   38.0569   37.6336  -11.7054 C   0  0  2  0  0  0  0  0  0  0  0  0
   37.4210   36.4539  -12.2241 O   0  0  0  0  0  0  0  0  0  0  0  0
   39.5896   34.5364  -14.6653 C   0  0  1  0  0  0  0  0  0  0  0  0
   40.9184   34.7196  -14.1697 O   0  0  0  0  0  0  0  0  0  0  0  0
   40.2386   44.2208  -13.8124 C   0  0  2  0  0  0  0  0  0  0  0  0
   41.1763   44.9692  -14.5905 O   0  0  0  0  0  0  0  0  0  0  0  0
   37.3510   40.5397  -15.1809 C   0  0  2  0  0  0  0  0  0  0  0  0
   37.2448   38.1791  -10.5414 C   0  0  2  0  0  0  0  0  0  0  0  0
   36.2480   39.0596  -11.1038 O   0  0  0  0  0  0  0  0  0  0  0  0
   39.0889   33.1577  -14.2315 C   0  0  2  0  0  0  0  0  0  0  0  0
   37.8580   32.8800  -14.9051 O   0  0  0  0  0  0  0  0  0  0  0  0
   40.4702   42.7242  -14.0261 C   0  0  2  0  0  0  0  0  0  0  0  0
   39.5079   41.9597  -13.2734 O   0  0  0  0  0  0  0  0  0  0  0  0
   35.9989   40.4832  -14.4729 C   0  0  2  0  0  0  0  0  0  0  0  0
   36.2074   40.4406  -13.0519 O   0  0  0  0  0  0  0  0  0  0  0  0
   38.1693   38.9352   -9.5847 C   0  0  0  0  0  0  0  0  0  0  0  0
   39.1005   38.0156   -9.0102 O   0  0  0  0  0  0  0  0  0  0  0  0
   38.8802   33.1584  -12.7148 C   0  0  1  0  0  0  0  0  0  0  0  0
   37.9011   34.1613  -12.3911 O   0  0  0  0  0  0  0  0  0  0  0  0
   41.8871   42.4005  -13.5455 C   0  0  0  0  0  0  0  0  0  0  0  0
   41.9458   42.4511  -12.0775 O   0  0  0  0  0  0  0  0  0  0  0  0
   35.1960   39.2563  -14.9215 C   0  0  1  0  0  0  0  0  0  0  0  0
   33.9014   39.2710  -14.3158 O   0  0  0  0  0  0  0  0  0  0  0  0
   38.3981   31.8030  -12.1962 C   0  0  0  0  0  0  0  0  0  0  0  0
   37.0287   31.5623  -12.6719 N   0  0  0  0  0  0  0  0  0  0  0  0
  1  2  1  6  0  0  0
  1  7  1  0  0  0  0
  1 30  1  0  0  0  0
  3  4  1  1  0  0  0
  3  9  1  0  0  0  0
  3 39  1  0  0  0  0
  5 10  1  0  0  0  0
  5 26  1  0  0  0  0
  5 32  1  1  0  0  0
  6 12  1  0  0  0  0
  6 36  1  0  0  0  0
  6 19  1  6  0  0  0
  7  8  1  6  0  0  0
  7 14  1  0  0  0  0
  9 16  1  0  0  0  0
 10 11  1  6  0  0  0
 10 18  1  0  0  0  0
 12 13  1  6  0  0  0
 12 20  1  0  0  0  0
 14 15  1  1  0  0  0
 14 22  1  0  0  0  0
 16 17  1  1  0  0  0
 16 24  1  0  0  0  0
 18 19  1  6  0  0  0
 18 25  1  0  0  0  0
 20 21  1  1  0  0  0
 20 27  1  0  0  0  0
 22 23  1  6  0  0  0
 22 29  1  0  0  0  0
 24  2  1  6  0  0  0
 24 31  1  0  0  0  0
 25 26  1  0  0  0  0
 25 33  1  1  0  0  0
 27 28  1  6  0  0  0
 27 35  1  0  0  0  0
 29 30  1  0  0  0  0
 29 37  1  1  0  0  0
 31 32  1  1  0  0  0
 31 39  1  0  0  0  0
 33 34  1  0  0  0  0
 35 36  1  0  0  0  0
 35 41  1  6  0  0  0
 37 38  1  0  0  0  0
 39 40  1  1  0  0  0
 41 42  1  0  0  0  0
M  END
>  <CHROM.1>
-140.42689529,83.59702220,-94.46834145,106.32477747,-177.38270307,-64.74843020
72.35725196,-84.14355711,-68.64034231,38.02236239,38.94135294,-13.65746165
-1.45260075,0.74121652,2.97597691

>  <Name>
3c44_lig

>  <RI>
0

>  <Rbt.Current_Directory>
/home/itssahil/PROJECTS/Mol_Feturizer/New_Systems/rnas/3c44

>  <Rbt.Executable>
rbdock ($Id: //depot/dev/client3/rdock/2013.1/src/exe/rbdock.cxx#4 $)

>  <Rbt.Library>
libRbt.so (2013.1, Build901 2013/11/27)

>  <Rbt.Parameter_File>
/export/apps/rDock/src/rDock_2013.1_src/data/scripts/dock_solv.prm

>  <Rbt.Receptor>
prm/pocket_docking_4.prm

>  <SCORE>
-10.1401

>  <SCORE.INTER>
-18.172

>  <SCORE.INTER.CONST>
1

>  <SCORE.INTER.POLAR>
-1.83219

>  <SCORE.INTER.ROT>
9

>  <SCORE.INTER.SOLV>
16.9924

>  <SCORE.INTER.VDW>
-21.2715

>  <SCORE.INTER.norm>
-0.432666

>  <SCORE.INTRA>
8.03136

>  <SCORE.INTRA.DIHEDRAL>
6.93576

>  <SCORE.INTRA.DIHEDRAL.0>
14.8538

>  <SCORE.INTRA.POLAR>
0

>  <SCORE.INTRA.POLAR.0>
0

>  <SCORE.INTRA.REPUL>
0

>  <SCORE.INTRA.REPUL.0>
0

>  <SCORE.INTRA.SOLV>
0.408841

>  <SCORE.INTRA.SOLV.lig_0>
-100.951

>  <SCORE.INTRA.VDW>
4.35906

>  <SCORE.INTRA.VDW.0>
-5.71388

>  <SCORE.INTRA.norm>
0.191223

>  <SCORE.RESTR>
0.000477126

>  <SCORE.RESTR.CAVITY>
0.000477126

>  <SCORE.RESTR.norm>
1.13602e-05

>  <SCORE.SYSTEM>
0

>  <SCORE.SYSTEM.CONST>
0

>  <SCORE.SYSTEM.DIHEDRAL>
0

>  <SCORE.SYSTEM.SOLV>
0

>  <SCORE.SYSTEM.norm>
0

>  <SCORE.heavy>
42

>  <SCORE.norm>
-0.241432

>  <RMSD>
8.364

$$$$
3c44_lig
 OpenBabel11021811463D
libRbt.so/2013.1/901 2013/11/27
 42 45  0  0  0  0  0  0  0  0999 V2000
   36.4522   41.6335  -14.1195 C   0  0  2  0  0  0  0  0  0  0  0  0
   37.1015   40.5796  -13.3918 O   0  0  0  0  0  0  0  0  0  0  0  0
   37.7984   40.1537   -9.3270 C   0  0  2  0  0  0  0  0  0  0  0  0
   37.8401   40.0588   -7.8597 N   0  0  0  0  0  0  0  0  0  0  0  0
   36.4037   37.5417  -13.2198 C   0  0  1  0  0  0  0  0  0  0  0  0
   37.7840   35.1372  -16.3434 C   0  0  1  0  0  0  0  0  0  0  0  0
   35.1235   41.1123  -14.6772 C   0  0  2  0  0  0  0  0  0  0  0  0
   34.2909   40.5477  -13.6053 N   0  0  0  0  0  0  0  0  0  0  0  0
   37.3203   41.5411   -9.7647 C   0  0  0  0  0  0  0  0  0  0  0  0
   36.3824   36.0265  -13.0132 C   0  0  2  0  0  0  0  0  0  0  0  0
   37.5932   35.6024  -12.3843 O   0  0  0  0  0  0  0  0  0  0  0  0
   38.0233   33.6356  -16.1550 C   0  0  2  0  0  0  0  0  0  0  0  0
   39.2064   33.4604  -15.3014 N   0  0  0  0  0  0  0  0  0  0  0  0
   35.3508   40.0433  -15.7490 C   0  0  1  0  0  0  0  0  0  0  0  0
   34.0970   39.7037  -16.3491 O   0  0  0  0  0  0  0  0  0  0  0  0
   37.4504   41.6199  -11.2895 C   0  0  2  0  0  0  0  0  0  0  0  0
   36.9419   42.9192  -11.7546 N   0  0  0  0  0  0  0  0  0  0  0  0
   36.3978   35.5682  -14.4702 C   0  0  2  0  0  0  0  0  0  0  0  0
   37.6923   35.7767  -15.0582 O   0  0  0  0  0  0  0  0  0  0  0  0
   38.2752   32.9419  -17.5001 C   0  0  1  0  0  0  0  0  0  0  0  0
   37.0703   32.8899  -18.2684 O   0  0  0  0  0  0  0  0  0  0  0  0
   36.3026   40.5772  -16.8211 C   0  0  2  0  0  0  0  0  0  0  0  0
   36.5987   39.5402  -17.7602 O   0  0  0  0  0  0  0  0  0  0  0  0
   36.6910   40.5024  -12.0154 C   0  0  2  0  0  0  0  0  0  0  0  0
   35.4005   36.5422  -15.0775 C   0  0  2  0  0  0  0  0  0  0  0  0
   35.4725   37.7549  -14.2969 O   0  0  0  0  0  0  0  0  0  0  0  0
   39.3422   33.6817  -18.3087 C   0  0  2  0  0  0  0  0  0  0  0  0
   40.6024   33.5438  -17.6461 O   0  0  0  0  0  0  0  0  0  0  0  0
   37.5957   41.0606  -16.1627 C   0  0  2  0  0  0  0  0  0  0  0  0
   37.3059   42.0824  -15.1885 O   0  0  0  0  0  0  0  0  0  0  0  0
   36.9488   39.1041  -11.4579 C   0  0  2  0  0  0  0  0  0  0  0  0
   35.9858   38.1887  -12.0052 O   0  0  0  0  0  0  0  0  0  0  0  0
   33.9968   35.9354  -15.0223 C   0  0  0  0  0  0  0  0  0  0  0  0
   33.5649   35.8796  -13.6610 O   0  0  0  0  0  0  0  0  0  0  0  0
   38.9522   35.1584  -18.4140 C   0  0  1  0  0  0  0  0  0  0  0  0
   38.8756   35.7043  -17.0853 O   0  0  0  0  0  0  0  0  0  0  0  0
   38.4938   41.6281  -17.2649 C   0  0  0  0  0  0  0  0  0  0  0  0
   39.7772   42.0636  -16.6956 O   0  0  0  0  0  0  0  0  0  0  0  0
   36.8639   39.1001   -9.9270 C   0  0  1  0  0  0  0  0  0  0  0  0
   37.1956   37.8046   -9.4223 O   0  0  0  0  0  0  0  0  0  0  0  0
   39.9618   35.9671  -19.2295 C   0  0  0  0  0  0  0  0  0  0  0  0
   41.2581   35.9615  -18.5374 N   0  0  0  0  0  0  0  0  0  0  0  0
  1  2  1  6  0  0  0
  1  7  1  0  0  0  0
  1 30  1  0  0  0  0
  3  4  1  1  0  0  0
  3  9  1  0  0  0  0
  3 39  1  0  0  0  0
  5 10  1  0  0  0  0
  5 26  1  0  0  0  0
  5 32  1  1  0  0  0
  6 12  1  0  0  0  0
  6 36  1  0  0  0  0
  6 19  1  1  0  0  0
  7  8  1  1  0  0  0
  7 14  1  0  0  0  0
  9 16  1  0  0  0  0
 10 11  1  1  0  0  0
 10 18  1  0  0  0  0
 12 13  1  1  0  0  0
 12 20  1  0  0  0  0
 14 15  1  6  0  0  0
 14 22  1  0  0  0  0
 16 17  1  6  0  0  0
 16 24  1  0  0  0  0
 18 19  1  6  0  0  0
 18 25  1  0  0  0  0
 20 21  1  6  0  0  0
 20 27  1  0  0  0  0
 22 23  1  6  0  0  0
 22 29  1  0  0  0  0
 24  2  1  6  0  0  0
 24 31  1  0  0  0  0
 25 26  1  0  0  0  0
 25 33  1  1  0  0  0
 27 28  1  1  0  0  0
 27 35  1  0  0  0  0
 29 30  1  0  0  0  0
 29 37  1  6  0  0  0
 31 32  1  6  0  0  0
 31 39  1  0  0  0  0
 33 34  1  0  0  0  0
 35 36  1  0  0  0  0
 35 41  1  6  0  0  0
 37 38  1  0  0  0  0
 39 40  1  1  0  0  0
 41 42  1  0  0  0  0
M  END
>  <CHROM.1>
-86.92007288,121.81930044,-78.70383809,169.82756859,-78.33456964,69.21310998
-177.87243044,91.05095891,-63.83142938,37.18469747,37.99165678,-14.58420000
-2.68278908,-1.32462734,2.79413192

>  <Name>
3c44_lig

>  <RI>
0

>  <Rbt.Current_Directory>
/home/itssahil/PROJECTS/Mol_Feturizer/New_Systems/rnas/3c44

>  <Rbt.Executable>
rbdock ($Id: //depot/dev/client3/rdock/2013.1/src/exe/rbdock.cxx#4 $)

>  <Rbt.Library>
libRbt.so (2013.1, Build901 2013/11/27)

>  <Rbt.Parameter_File>
/export/apps/rDock/src/rDock_2013.1_src/data/scripts/dock_solv.prm

>  <Rbt.Receptor>
prm/pocket_docking_6.prm

>  <SCORE>
-15.4926

>  <SCORE.INTER>
-19.8961

>  <SCORE.INTER.CONST>
1

>  <SCORE.INTER.POLAR>
-3.67263

>  <SCORE.INTER.ROT>
9

>  <SCORE.INTER.SOLV>
11.8701

>  <SCORE.INTER.VDW>
-14.5787

>  <SCORE.INTER.norm>
-0.473717

>  <SCORE.INTRA>
4.40349

>  <SCORE.INTRA.DIHEDRAL>
3.36214

>  <SCORE.INTRA.DIHEDRAL.0>
14.8538

>  <SCORE.INTRA.POLAR>
0

>  <SCORE.INTRA.POLAR.0>
0

>  <SCORE.INTRA.REPUL>
0

>  <SCORE.INTRA.REPUL.0>
0

>  <SCORE.INTRA.SOLV>
2.80256

>  <SCORE.INTRA.SOLV.lig_0>
-100.951

>  <SCORE.INTRA.VDW>
1.32114

>  <SCORE.INTRA.VDW.0>
-5.71388

>  <SCORE.INTRA.norm>
0.104845

>  <SCORE.RESTR>
0

>  <SCORE.RESTR.CAVITY>
0

>  <SCORE.RESTR.norm>
0

>  <SCORE.SYSTEM>
0

>  <SCORE.SYSTEM.CONST>
0

>  <SCORE.SYSTEM.DIHEDRAL>
0

>  <SCORE.SYSTEM.SOLV>
0

>  <SCORE.SYSTEM.norm>
0

>  <SCORE.heavy>
42

>  <SCORE.norm>
-0.368872

>  <RMSD>
8.389

$$$$
3c44_lig
 OpenBabel11021811463D
libRbt.so/2013.1/901 2013/11/27
 42 45  0  0  0  0  0  0  0  0999 V2000
   37.8527   38.9062  -10.2945 C   0  0  2  0  0  0  0  0  0  0  0  0
   37.2075   40.1862  -10.3785 O   0  0  0  0  0  0  0  0  0  0  0  0
   36.2359   42.8361  -13.4156 C   0  0  2  0  0  0  0  0  0  0  0  0
   36.0920   43.7456  -14.5627 N   0  0  0  0  0  0  0  0  0  0  0  0
   35.6018   38.3400  -13.5554 C   0  0  1  0  0  0  0  0  0  0  0  0
   33.3550   36.6277  -16.5499 C   0  0  1  0  0  0  0  0  0  0  0  0
   37.5172   38.2639   -8.9443 C   0  0  2  0  0  0  0  0  0  0  0  0
   36.0625   38.1956   -8.7437 N   0  0  0  0  0  0  0  0  0  0  0  0
   37.4244   43.2511  -12.5436 C   0  0  0  0  0  0  0  0  0  0  0  0
   36.0155   37.4510  -14.7291 C   0  0  2  0  0  0  0  0  0  0  0  0
   35.9750   38.1988  -15.9460 O   0  0  0  0  0  0  0  0  0  0  0  0
   33.8979   37.6396  -17.5644 C   0  0  2  0  0  0  0  0  0  0  0  0
   33.3563   38.9640  -17.2301 N   0  0  0  0  0  0  0  0  0  0  0  0
   38.1454   39.0426   -7.7859 C   0  0  1  0  0  0  0  0  0  0  0  0
   37.9400   38.3216   -6.5672 O   0  0  0  0  0  0  0  0  0  0  0  0
   37.4194   42.3632  -11.2947 C   0  0  2  0  0  0  0  0  0  0  0  0
   38.5848   42.6914  -10.4598 N   0  0  0  0  0  0  0  0  0  0  0  0
   34.8541   36.4591  -14.7221 C   0  0  2  0  0  0  0  0  0  0  0  0
   33.6528   37.0745  -15.2154 O   0  0  0  0  0  0  0  0  0  0  0  0
   33.4711   37.2754  -18.9924 C   0  0  1  0  0  0  0  0  0  0  0  0
   34.1639   36.1064  -19.4377 O   0  0  0  0  0  0  0  0  0  0  0  0
   39.6455   39.2165   -8.0304 C   0  0  2  0  0  0  0  0  0  0  0  0
   40.2077   40.0374   -7.0032 O   0  0  0  0  0  0  0  0  0  0  0  0
   37.4514   40.8653  -11.6228 C   0  0  2  0  0  0  0  0  0  0  0  0
   34.7180   36.2024  -13.2295 C   0  0  2  0  0  0  0  0  0  0  0  0
   35.1520   37.4047  -12.5576 O   0  0  0  0  0  0  0  0  0  0  0  0
   31.9661   37.0128  -19.0661 C   0  0  2  0  0  0  0  0  0  0  0  0
   31.2707   38.2416  -18.8369 O   0  0  0  0  0  0  0  0  0  0  0  0
   39.8694   39.8720   -9.3939 C   0  0  2  0  0  0  0  0  0  0  0  0
   39.2763   39.0703  -10.4344 O   0  0  0  0  0  0  0  0  0  0  0  0
   36.4347   40.4321  -12.6769 C   0  0  2  0  0  0  0  0  0  0  0  0
   36.7415   39.0981  -13.1139 O   0  0  0  0  0  0  0  0  0  0  0  0
   35.5893   35.0076  -12.8361 C   0  0  0  0  0  0  0  0  0  0  0  0
   35.0908   33.8333  -13.4805 O   0  0  0  0  0  0  0  0  0  0  0  0
   31.5886   35.9783  -18.0025 C   0  0  1  0  0  0  0  0  0  0  0  0
   31.9325   36.5085  -16.7103 O   0  0  0  0  0  0  0  0  0  0  0  0
   41.3804   39.9809   -9.6142 C   0  0  0  0  0  0  0  0  0  0  0  0
   41.6572   40.7023  -10.8648 O   0  0  0  0  0  0  0  0  0  0  0  0
   36.4439   41.3904  -13.8738 C   0  0  1  0  0  0  0  0  0  0  0  0
   35.4255   41.0189  -14.8054 O   0  0  0  0  0  0  0  0  0  0  0  0
   30.0967   35.6431  -18.0247 C   0  0  0  0  0  0  0  0  0  0  0  0
   29.3226   36.8643  -17.7618 N   0  0  0  0  0  0  0  0  0  0  0  0
  1  2  1  1  0  0  0
  1  7  1  0  0  0  0
  1 30  1  0  0  0  0
  3  4  1  6  0  0  0
  3  9  1  0  0  0  0
  3 39  1  0  0  0  0
  5 10  1  0  0  0  0
  5 26  1  0  0  0  0
  5 32  1  1  0  0  0
  6 12  1  0  0  0  0
  6 36  1  0  0  0  0
  6 19  1  1  0  0  0
  7  8  1  1  0  0  0
  7 14  1  0  0  0  0
  9 16  1  0  0  0  0
 10 11  1  6  0  0  0
 10 18  1  0  0  0  0
 12 13  1  1  0  0  0
 12 20  1  0  0  0  0
 14 15  1  1  0  0  0
 14 22  1  0  0  0  0
 16 17  1  1  0  0  0
 16 24  1  0  0  0  0
 18 19  1  1  0  0  0
 18 25  1  0  0  0  0
 20 21  1  1  0  0  0
 20 27  1  0  0  0  0
 22 23  1  1  0  0  0
 22 29  1  0  0  0  0
 24  2  1  1  0  0  0
 24 31  1  0  0  0  0
 25 26  1  0  0  0  0
 25 33  1  1  0  0  0
 27 28  1  1  0  0  0
 27 35  1  0  0  0  0
 29 30  1  0  0  0  0
 29 37  1  6  0  0  0
 31 32  1  6  0  0  0
 31 39  1  0  0  0  0
 33 34  1  0  0  0  0
 35 36  1  0  0  0  0
 35 41  1  1  0  0  0
 37 38  1  0  0  0  0
 39 40  1  6  0  0  0
 41 42  1  0  0  0  0
M  END
>  <CHROM.1>
-179.35289578,143.92939275,-96.10803812,105.09691448,-149.28035014,-64.63752249
-175.50294093,151.07813996,-60.38267562,35.86954221,38.70010430,-13.34872263
0.13722324,0.92986514,2.59564135

>  <Name>
3c44_lig

>  <RI>
0

>  <Rbt.Current_Directory>
/home/itssahil/PROJECTS/Mol_Feturizer/New_Systems/rnas/3c44

>  <Rbt.Executable>
rbdock ($Id: //depot/dev/client3/rdock/2013.1/src/exe/rbdock.cxx#4 $)

>  <Rbt.Library>
libRbt.so (2013.1, Build901 2013/11/27)

>  <Rbt.Parameter_File>
/export/apps/rDock/src/rDock_2013.1_src/data/scripts/dock_solv.prm

>  <Rbt.Receptor>
prm/pocket_docking_7.prm

>  <SCORE>
-9.82587

>  <SCORE.INTER>
-15.0388

>  <SCORE.INTER.CONST>
1

>  <SCORE.INTER.POLAR>
-2.99887

>  <SCORE.INTER.ROT>
9

>  <SCORE.INTER.SOLV>
21.5985

>  <SCORE.INTER.VDW>
-16.8291

>  <SCORE.INTER.norm>
-0.358067

>  <SCORE.INTRA>
5.21293

>  <SCORE.INTRA.DIHEDRAL>
7.8066

>  <SCORE.INTRA.DIHEDRAL.0>
14.8538

>  <SCORE.INTRA.POLAR>
0

>  <SCORE.INTRA.POLAR.0>
0

>  <SCORE.INTRA.REPUL>
0

>  <SCORE.INTRA.REPUL.0>
0

>  <SCORE.INTRA.SOLV>
0.35416

>  <SCORE.INTRA.SOLV.lig_0>
-100.951

>  <SCORE.INTRA.VDW>
1.13254

>  <SCORE.INTRA.VDW.0>
-5.71388

>  <SCORE.INTRA.norm>
0.124117

>  <SCORE.RESTR>
0

>  <SCORE.RESTR.CAVITY>
0

>  <SCORE.RESTR.norm>
0

>  <SCORE.SYSTEM>
0

>  <SCORE.SYSTEM.CONST>
0

>  <SCORE.SYSTEM.DIHEDRAL>
0

>  <SCORE.SYSTEM.SOLV>
0

>  <SCORE.SYSTEM.norm>
0

>  <SCORE.heavy>
42

>  <SCORE.norm>
-0.233949

>  <RMSD>
8.437

$$$$
3c44_lig
 OpenBabel11021811463D
libRbt.so/2013.1/901 2013/11/27
 42 45  0  0  0  0  0  0  0  0999 V2000
   37.2800   42.9216  -11.5235 C   0  0  2  0  0  0  0  0  0  0  0  0
   37.7828   41.6284  -11.1540 O   0  0  0  0  0  0  0  0  0  0  0  0
   37.4722   39.4350   -7.6494 C   0  0  2  0  0  0  0  0  0  0  0  0
   37.1570   38.7204   -6.4029 N   0  0  0  0  0  0  0  0  0  0  0  0
   37.0791   38.4270  -12.3161 C   0  0  1  0  0  0  0  0  0  0  0  0
   38.8455   36.0445  -15.2890 C   0  0  1  0  0  0  0  0  0  0  0  0
   36.1613   42.7478  -12.5560 C   0  0  2  0  0  0  0  0  0  0  0  0
   35.1193   41.8416  -12.0521 N   0  0  0  0  0  0  0  0  0  0  0  0
   37.1293   40.9219   -7.5205 C   0  0  0  0  0  0  0  0  0  0  0  0
   36.3063   37.2187  -12.8471 C   0  0  2  0  0  0  0  0  0  0  0  0
   36.5811   36.0710  -12.0415 O   0  0  0  0  0  0  0  0  0  0  0  0
   40.1742   35.3197  -15.0504 C   0  0  2  0  0  0  0  0  0  0  0  0
   41.0679   36.2248  -14.3146 N   0  0  0  0  0  0  0  0  0  0  0  0
   36.7042   42.1991  -13.8779 C   0  0  1  0  0  0  0  0  0  0  0  0
   35.6588   42.2039  -14.8549 O   0  0  0  0  0  0  0  0  0  0  0  0
   37.6249   41.6265   -8.7878 C   0  0  2  0  0  0  0  0  0  0  0  0
   37.2582   43.0495   -8.7282 N   0  0  0  0  0  0  0  0  0  0  0  0
   36.9951   37.0473  -14.1995 C   0  0  2  0  0  0  0  0  0  0  0  0
   38.3190   36.5131  -14.0351 O   0  0  0  0  0  0  0  0  0  0  0  0
   40.8413   34.9351  -16.3775 C   0  0  1  0  0  0  0  0  0  0  0  0
   40.1140   33.8818  -17.0150 O   0  0  0  0  0  0  0  0  0  0  0  0
   37.8631   43.0709  -14.3650 C   0  0  2  0  0  0  0  0  0  0  0  0
   38.4379   42.4933  -15.5401 O   0  0  0  0  0  0  0  0  0  0  0  0
   37.0511   41.0210  -10.0749 C   0  0  2  0  0  0  0  0  0  0  0  0
   37.0839   38.4965  -14.6510 C   0  0  2  0  0  0  0  0  0  0  0  0
   37.1749   39.3016  -13.4557 O   0  0  0  0  0  0  0  0  0  0  0  0
   40.9062   36.1324  -17.3273 C   0  0  2  0  0  0  0  0  0  0  0  0
   41.8139   37.0991  -16.7909 O   0  0  0  0  0  0  0  0  0  0  0  0
   38.9244   43.1711  -13.2684 C   0  0  2  0  0  0  0  0  0  0  0  0
   38.3478   43.7201  -12.0670 O   0  0  0  0  0  0  0  0  0  0  0  0
   37.1511   39.4988  -10.1508 C   0  0  2  0  0  0  0  0  0  0  0  0
   36.3389   39.0223  -11.2361 O   0  0  0  0  0  0  0  0  0  0  0  0
   35.8367   38.8552  -15.4618 C   0  0  0  0  0  0  0  0  0  0  0  0
   34.7105   38.9178  -14.5840 O   0  0  0  0  0  0  0  0  0  0  0  0
   39.5052   36.7338  -17.4666 C   0  0  1  0  0  0  0  0  0  0  0  0
   39.0625   37.1611  -16.1663 O   0  0  0  0  0  0  0  0  0  0  0  0
   40.0370   44.0888  -13.7815 C   0  0  0  0  0  0  0  0  0  0  0  0
   41.1580   44.1031  -12.8306 O   0  0  0  0  0  0  0  0  0  0  0  0
   36.6988   38.8534   -8.8356 C   0  0  1  0  0  0  0  0  0  0  0  0
   36.8844   37.4375   -8.8965 O   0  0  0  0  0  0  0  0  0  0  0  0
   39.4804   37.9284  -18.4209 C   0  0  0  0  0  0  0  0  0  0  0  0
   38.0885   38.3503  -18.6317 N   0  0  0  0  0  0  0  0  0  0  0  0
  1  2  1  6  0  0  0
  1  7  1  0  0  0  0
  1 30  1  0  0  0  0
  3  4  1  1  0  0  0
  3  9  1  0  0  0  0
  3 39  1  0  0  0  0
  5 10  1  0  0  0  0
  5 26  1  0  0  0  0
  5 32  1  1  0  0  0
  6 12  1  0  0  0  0
  6 36  1  0  0  0  0
  6 19  1  1  0  0  0
  7  8  1  1  0  0  0
  7 14  1  0  0  0  0
  9 16  1  0  0  0  0
 10 11  1  1  0  0  0
 10 18  1  0  0  0  0
 12 13  1  6  0  0  0
 12 20  1  0  0  0  0
 14 15  1  6  0  0  0
 14 22  1  0  0  0  0
 16 17  1  1  0  0  0
 16 24  1  0  0  0  0
 18 19  1  1  0  0  0
 18 25  1  0  0  0  0
 20 21  1  6  0  0  0
 20 27  1  0  0  0  0
 22 23  1  6  0  0  0
 22 29  1  0  0  0  0
 24  2  1  6  0  0  0
 24 31  1  0  0  0  0
 25 26  1  0  0  0  0
 25 33  1  1  0  0  0
 27 28  1  1  0  0  0
 27 35  1  0  0  0  0
 29 30  1  0  0  0  0
 29 37  1  6  0  0  0
 31 32  1  6  0  0  0
 31 39  1  0  0  0  0
 33 34  1  0  0  0  0
 35 36  1  0  0  0  0
 35 41  1  6  0  0  0
 37 38  1  0  0  0  0
 39 40  1  6  0  0  0
 41 42  1  0  0  0  0
M  END
>  <CHROM.1>
-87.16235685,141.62338936,-172.68727678,165.84047385,-82.43304687,70.62170921
-173.65523449,113.78992439,173.23032229,37.96192991,39.39088540,-13.18427863
-2.65067840,-1.25870939,2.98625943

>  <Name>
3c44_lig

>  <RI>
0

>  <Rbt.Current_Directory>
/home/itssahil/PROJECTS/Mol_Feturizer/New_Systems/rnas/3c44

>  <Rbt.Executable>
rbdock ($Id: //depot/dev/client3/rdock/2013.1/src/exe/rbdock.cxx#4 $)

>  <Rbt.Library>
libRbt.so (2013.1, Build901 2013/11/27)

>  <Rbt.Parameter_File>
/export/apps/rDock/src/rDock_2013.1_src/data/scripts/dock_solv.prm

>  <Rbt.Receptor>
prm/pocket_docking_6.prm

>  <SCORE>
-10.7437

>  <SCORE.INTER>
-13.6084

>  <SCORE.INTER.CONST>
1

>  <SCORE.INTER.POLAR>
-2.54907

>  <SCORE.INTER.ROT>
9

>  <SCORE.INTER.SOLV>
13.5901

>  <SCORE.INTER.VDW>
-14.7054

>  <SCORE.INTER.norm>
-0.324009

>  <SCORE.INTRA>
2.86463

>  <SCORE.INTRA.DIHEDRAL>
4.68419

>  <SCORE.INTRA.DIHEDRAL.0>
14.8538

>  <SCORE.INTRA.POLAR>
0

>  <SCORE.INTRA.POLAR.0>
0

>  <SCORE.INTRA.REPUL>
0

>  <SCORE.INTRA.REPUL.0>
0

>  <SCORE.INTRA.SOLV>
1.172

>  <SCORE.INTRA.SOLV.lig_0>
-100.951

>  <SCORE.INTRA.VDW>
-0.0634605

>  <SCORE.INTRA.VDW.0>
-5.71388

>  <SCORE.INTRA.norm>
0.0682056

>  <SCORE.RESTR>
0

>  <SCORE.RESTR.CAVITY>
0

>  <SCORE.RESTR.norm>
0

>  <SCORE.SYSTEM>
0

>  <SCORE.SYSTEM.CONST>
0

>  <SCORE.SYSTEM.DIHEDRAL>
0

>  <SCORE.SYSTEM.SOLV>
0

>  <SCORE.SYSTEM.norm>
0

>  <SCORE.heavy>
42

>  <SCORE.norm>
-0.255803

>  <RMSD>
8.438

$$$$
3c44_lig
 OpenBabel11021811463D
libRbt.so/2013.1/901 2013/11/27
 42 45  0  0  0  0  0  0  0  0999 V2000
   36.2733   41.5235  -10.5377 C   0  0  2  0  0  0  0  0  0  0  0  0
   37.4513   42.3393  -10.6306 O   0  0  0  0  0  0  0  0  0  0  0  0
   40.2811   43.3447  -13.4891 C   0  0  2  0  0  0  0  0  0  0  0  0
   41.2614   43.5003  -14.5746 N   0  0  0  0  0  0  0  0  0  0  0  0
   36.4209   41.4594  -13.9524 C   0  0  1  0  0  0  0  0  0  0  0  0
   35.1911   37.5682  -15.0880 C   0  0  1  0  0  0  0  0  0  0  0  0
   35.4139   42.0160   -9.3685 C   0  0  2  0  0  0  0  0  0  0  0  0
   35.1187   43.4498   -9.5028 N   0  0  0  0  0  0  0  0  0  0  0  0
   40.6527   42.1604  -12.5920 C   0  0  0  0  0  0  0  0  0  0  0  0
   34.9422   41.1325  -14.1663 C   0  0  2  0  0  0  0  0  0  0  0  0
   34.3571   40.6921  -12.9393 O   0  0  0  0  0  0  0  0  0  0  0  0
   35.4881   36.3579  -14.1966 C   0  0  2  0  0  0  0  0  0  0  0  0
   36.8937   36.4297  -13.7743 N   0  0  0  0  0  0  0  0  0  0  0  0
   36.1080   41.7722   -8.0261 C   0  0  1  0  0  0  0  0  0  0  0  0
   35.2072   42.0995   -6.9637 O   0  0  0  0  0  0  0  0  0  0  0  0
   39.6855   42.1540  -11.4035 C   0  0  2  0  0  0  0  0  0  0  0  0
   39.9726   40.9918  -10.5491 N   0  0  0  0  0  0  0  0  0  0  0  0
   35.0768   39.9353  -15.1051 C   0  0  2  0  0  0  0  0  0  0  0  0
   35.5443   38.7775  -14.3938 O   0  0  0  0  0  0  0  0  0  0  0  0
   35.2650   35.0432  -14.9555 C   0  0  1  0  0  0  0  0  0  0  0  0
   33.8695   34.8278  -15.1814 O   0  0  0  0  0  0  0  0  0  0  0  0
   36.5190   40.3030   -7.9135 C   0  0  2  0  0  0  0  0  0  0  0  0
   37.2630   40.1033   -6.7087 O   0  0  0  0  0  0  0  0  0  0  0  0
   38.2125   42.1045  -11.8281 C   0  0  2  0  0  0  0  0  0  0  0  0
   36.1695   40.4353  -16.0368 C   0  0  2  0  0  0  0  0  0  0  0  0
   36.9934   41.3381  -15.2677 O   0  0  0  0  0  0  0  0  0  0  0  0
   35.9847   35.0588  -16.3052 C   0  0  2  0  0  0  0  0  0  0  0  0
   37.3966   35.0506  -16.0762 O   0  0  0  0  0  0  0  0  0  0  0  0
   37.3777   39.9178   -9.1191 C   0  0  2  0  0  0  0  0  0  0  0  0
   36.6500   40.1478  -10.3417 O   0  0  0  0  0  0  0  0  0  0  0  0
   37.8367   43.1169  -12.9081 C   0  0  2  0  0  0  0  0  0  0  0  0
   36.5376   42.7947  -13.4308 O   0  0  0  0  0  0  0  0  0  0  0  0
   35.5338   41.1524  -17.2298 C   0  0  0  0  0  0  0  0  0  0  0  0
   34.7724   40.2110  -17.9894 O   0  0  0  0  0  0  0  0  0  0  0  0
   35.5748   36.3180  -17.0734 C   0  0  1  0  0  0  0  0  0  0  0  0
   35.9577   37.4680  -16.2987 O   0  0  0  0  0  0  0  0  0  0  0  0
   37.7232   38.4323   -8.9873 C   0  0  0  0  0  0  0  0  0  0  0  0
   36.4924   37.6293   -8.9518 O   0  0  0  0  0  0  0  0  0  0  0  0
   38.8707   43.1200  -14.0403 C   0  0  1  0  0  0  0  0  0  0  0  0
   38.5485   44.1347  -14.9940 O   0  0  0  0  0  0  0  0  0  0  0  0
   36.2378   36.3984  -18.4490 C   0  0  0  0  0  0  0  0  0  0  0  0
   37.6972   36.4361  -18.2812 N   0  0  0  0  0  0  0  0  0  0  0  0
  1  2  1  1  0  0  0
  1  7  1  0  0  0  0
  1 30  1  0  0  0  0
  3  4  1  6  0  0  0
  3  9  1  0  0  0  0
  3 39  1  0  0  0  0
  5 10  1  0  0  0  0
  5 26  1  0  0  0  0
  5 32  1  6  0  0  0
  6 12  1  0  0  0  0
  6 36  1  0  0  0  0
  6 19  1  1  0  0  0
  7  8  1  6  0  0  0
  7 14  1  0  0  0  0
  9 16  1  0  0  0  0
 10 11  1  1  0  0  0
 10 18  1  0  0  0  0
 12 13  1  6  0  0  0
 12 20  1  0  0  0  0
 14 15  1  1  0  0  0
 14 22  1  0  0  0  0
 16 17  1  1  0  0  0
 16 24  1  0  0  0  0
 18 19  1  1  0  0  0
 18 25  1  0  0  0  0
 20 21  1  6  0  0  0
 20 27  1  0  0  0  0
 22 23  1  1  0  0  0
 22 29  1  0  0  0  0
 24  2  1  1  0  0  0
 24 31  1  0  0  0  0
 25 26  1  0  0  0  0
 25 33  1  6  0  0  0
 27 28  1  1  0  0  0
 27 35  1  0  0  0  0
 29 30  1  0  0  0  0
 29 37  1  1  0  0  0
 31 32  1  6  0  0  0
 31 39  1  0  0  0  0
 33 34  1  0  0  0  0
 35 36  1  0  0  0  0
 35 41  1  6  0  0  0
 37 38  1  0  0  0  0
 39 40  1  6  0  0  0
 41 42  1  0  0  0  0
M  END
>  <CHROM.1>
-170.17815994,166.77134336,-170.43434773,157.56858353,-140.36315757,-64.56408810
59.39957921,-56.36258254,-60.77283299,36.75882726,39.96987212,-13.08140923
1.14063377,1.14987683,1.35743487

>  <Name>
3c44_lig

>  <RI>
0

>  <Rbt.Current_Directory>
/home/itssahil/PROJECTS/Mol_Feturizer/New_Systems/rnas/3c44

>  <Rbt.Executable>
rbdock ($Id: //depot/dev/client3/rdock/2013.1/src/exe/rbdock.cxx#4 $)

>  <Rbt.Library>
libRbt.so (2013.1, Build901 2013/11/27)

>  <Rbt.Parameter_File>
/export/apps/rDock/src/rDock_2013.1_src/data/scripts/dock_solv.prm

>  <Rbt.Receptor>
prm/pocket_docking_6.prm

>  <SCORE>
-16.9888

>  <SCORE.INTER>
-15.4073

>  <SCORE.INTER.CONST>
1

>  <SCORE.INTER.POLAR>
-1.97574

>  <SCORE.INTER.ROT>
9

>  <SCORE.INTER.SOLV>
13.1853

>  <SCORE.INTER.VDW>
-17.6808

>  <SCORE.INTER.norm>
-0.366839

>  <SCORE.INTRA>
-1.58158

>  <SCORE.INTRA.DIHEDRAL>
-5.21494

>  <SCORE.INTRA.DIHEDRAL.0>
14.8538

>  <SCORE.INTRA.POLAR>
0

>  <SCORE.INTRA.POLAR.0>
0

>  <SCORE.INTRA.REPUL>
0

>  <SCORE.INTRA.REPUL.0>
0

>  <SCORE.INTRA.SOLV>
-0.552321

>  <SCORE.INTRA.SOLV.lig_0>
-100.951

>  <SCORE.INTRA.VDW>
1.30205

>  <SCORE.INTRA.VDW.0>
-5.71388

>  <SCORE.INTRA.norm>
-0.0376567

>  <SCORE.RESTR>
0

>  <SCORE.RESTR.CAVITY>
0

>  <SCORE.RESTR.norm>
0

>  <SCORE.SYSTEM>
0

>  <SCORE.SYSTEM.CONST>
0

>  <SCORE.SYSTEM.DIHEDRAL>
0

>  <SCORE.SYSTEM.SOLV>
0

>  <SCORE.SYSTEM.norm>
0

>  <SCORE.heavy>
42

>  <SCORE.norm>
-0.404496

>  <RMSD>
8.460

$$$$
3c44_lig
 OpenBabel11021811463D
libRbt.so/2013.1/901 2013/11/27
 42 45  0  0  0  0  0  0  0  0999 V2000
   40.7773   42.2256  -11.4309 C   0  0  2  0  0  0  0  0  0  0  0  0
   39.6014   42.6343  -12.1463 O   0  0  0  0  0  0  0  0  0  0  0  0
   38.7555   45.1697   -8.9769 C   0  0  2  0  0  0  0  0  0  0  0  0
   38.3422   46.1835   -7.9944 N   0  0  0  0  0  0  0  0  0  0  0  0
   37.1935   41.4745  -11.8523 C   0  0  1  0  0  0  0  0  0  0  0  0
   37.1460   37.5801  -13.5620 C   0  0  1  0  0  0  0  0  0  0  0  0
   41.4160   41.0358  -12.1551 C   0  0  2  0  0  0  0  0  0  0  0  0
   41.6770   41.3594  -13.5651 N   0  0  0  0  0  0  0  0  0  0  0  0
   39.4563   45.8276  -10.1690 C   0  0  0  0  0  0  0  0  0  0  0  0
   35.9882   40.5402  -11.9681 C   0  0  2  0  0  0  0  0  0  0  0  0
   35.9822   39.6139  -10.8802 O   0  0  0  0  0  0  0  0  0  0  0  0
   35.9347   36.9748  -12.8450 C   0  0  2  0  0  0  0  0  0  0  0  0
   36.2080   36.9697  -11.4013 N   0  0  0  0  0  0  0  0  0  0  0  0
   40.5217   39.7956  -12.0843 C   0  0  1  0  0  0  0  0  0  0  0  0
   41.2247   38.6758  -12.6314 O   0  0  0  0  0  0  0  0  0  0  0  0
   39.9940   44.7100  -11.0689 C   0  0  2  0  0  0  0  0  0  0  0  0
   40.6219   45.3036  -12.2591 N   0  0  0  0  0  0  0  0  0  0  0  0
   36.3631   39.7947  -13.2474 C   0  0  2  0  0  0  0  0  0  0  0  0
   37.4395   38.8738  -13.0060 O   0  0  0  0  0  0  0  0  0  0  0  0
   35.6811   35.5337  -13.3067 C   0  0  1  0  0  0  0  0  0  0  0  0
   35.1873   35.5190  -14.6486 O   0  0  0  0  0  0  0  0  0  0  0  0
   40.1514   39.5050  -10.6287 C   0  0  2  0  0  0  0  0  0  0  0  0
   39.2286   38.4139  -10.5763 O   0  0  0  0  0  0  0  0  0  0  0  0
   38.9065   43.7274  -11.5210 C   0  0  2  0  0  0  0  0  0  0  0  0
   36.8625   40.9476  -14.1038 C   0  0  2  0  0  0  0  0  0  0  0  0
   37.4010   41.9367  -13.1999 O   0  0  0  0  0  0  0  0  0  0  0  0
   36.9642   34.7033  -13.2460 C   0  0  2  0  0  0  0  0  0  0  0  0
   37.3384   34.5304  -11.8762 O   0  0  0  0  0  0  0  0  0  0  0  0
   39.5153   40.7479  -10.0043 C   0  0  2  0  0  0  0  0  0  0  0  0
   40.4238   41.8641  -10.0827 O   0  0  0  0  0  0  0  0  0  0  0  0
   38.0132   43.2176  -10.3920 C   0  0  2  0  0  0  0  0  0  0  0  0
   36.8713   42.5501  -10.9534 O   0  0  0  0  0  0  0  0  0  0  0  0
   35.6992   41.5206  -14.9161 C   0  0  0  0  0  0  0  0  0  0  0  0
   36.2174   42.3899  -15.9255 O   0  0  0  0  0  0  0  0  0  0  0  0
   38.0679   35.4357  -14.0136 C   0  0  1  0  0  0  0  0  0  0  0  0
   38.2808   36.7158  -13.3928 O   0  0  0  0  0  0  0  0  0  0  0  0
   39.2071   40.4259   -8.5399 C   0  0  0  0  0  0  0  0  0  0  0  0
   40.4452   40.0754   -7.8290 O   0  0  0  0  0  0  0  0  0  0  0  0
   37.5552   44.3713   -9.4918 C   0  0  1  0  0  0  0  0  0  0  0  0
   36.7957   43.8623   -8.3931 O   0  0  0  0  0  0  0  0  0  0  0  0
   39.3841   34.6571  -14.0184 C   0  0  0  0  0  0  0  0  0  0  0  0
   40.4012   35.4310  -14.7438 N   0  0  0  0  0  0  0  0  0  0  0  0
  1  2  1  6  0  0  0
  1  7  1  0  0  0  0
  1 30  1  0  0  0  0
  3  4  1  1  0  0  0
  3  9  1  0  0  0  0
  3 39  1  0  0  0  0
  5 10  1  0  0  0  0
  5 26  1  0  0  0  0
  5 32  1  1  0  0  0
  6 12  1  0  0  0  0
  6 36  1  0  0  0  0
  6 19  1  1  0  0  0
  7  8  1  6  0  0  0
  7 14  1  0  0  0  0
  9 16  1  0  0  0  0
 10 11  1  1  0  0  0
 10 18  1  0  0  0  0
 12 13  1  1  0  0  0
 12 20  1  0  0  0  0
 14 15  1  1  0  0  0
 14 22  1  0  0  0  0
 16 17  1  6  0  0  0
 16 24  1  0  0  0  0
 18 19  1  1  0  0  0
 18 25  1  0  0  0  0
 20 21  1  6  0  0  0
 20 27  1  0  0  0  0
 22 23  1  6  0  0  0
 22 29  1  0  0  0  0
 24  2  1  1  0  0  0
 24 31  1  0  0  0  0
 25 26  1  0  0  0  0
 25 33  1  1  0  0  0
 27 28  1  1  0  0  0
 27 35  1  0  0  0  0
 29 30  1  0  0  0  0
 29 37  1  1  0  0  0
 31 32  1  6  0  0  0
 31 39  1  0  0  0  0
 33 34  1  0  0  0  0
 35 36  1  0  0  0  0
 35 41  1  1  0  0  0
 37 38  1  0  0  0  0
 39 40  1  1  0  0  0
 41 42  1  0  0  0  0
M  END
>  <CHROM.1>
178.36677629,159.20127652,-64.33741478,132.11943255,42.37606292,-167.23174269
59.75988751,56.00804279,-178.73194236,38.30563500,40.28050554,-11.87916084
-1.35780899,0.54043380,-2.86434454

>  <Name>
3c44_lig

>  <RI>
0

>  <Rbt.Current_Directory>
/home/itssahil/PROJECTS/Mol_Feturizer/New_Systems/rnas/3c44

>  <Rbt.Executable>
rbdock ($Id: //depot/dev/client3/rdock/2013.1/src/exe/rbdock.cxx#4 $)

>  <Rbt.Library>
libRbt.so (2013.1, Build901 2013/11/27)

>  <Rbt.Parameter_File>
/export/apps/rDock/src/rDock_2013.1_src/data/scripts/dock_solv.prm

>  <Rbt.Receptor>
prm/pocket_docking_5.prm

>  <SCORE>
-15.0019

>  <SCORE.INTER>
-17.1316

>  <SCORE.INTER.CONST>
1

>  <SCORE.INTER.POLAR>
-2.5823

>  <SCORE.INTER.ROT>
9

>  <SCORE.INTER.SOLV>
17.6613

>  <SCORE.INTER.VDW>
-18.3005

>  <SCORE.INTER.norm>
-0.407896

>  <SCORE.INTRA>
1.99818

>  <SCORE.INTRA.DIHEDRAL>
-4.39627

>  <SCORE.INTRA.DIHEDRAL.0>
14.8538

>  <SCORE.INTRA.POLAR>
0

>  <SCORE.INTRA.POLAR.0>
0

>  <SCORE.INTRA.REPUL>
0.051514

>  <SCORE.INTRA.REPUL.0>
0

>  <SCORE.INTRA.SOLV>
-0.0993227

>  <SCORE.INTRA.SOLV.lig_0>
-100.951

>  <SCORE.INTRA.VDW>
3.9884

>  <SCORE.INTRA.VDW.0>
-5.71388

>  <SCORE.INTRA.norm>
0.0475757

>  <SCORE.RESTR>
0.131492

>  <SCORE.RESTR.CAVITY>
0.131492

>  <SCORE.RESTR.norm>
0.00313077

>  <SCORE.SYSTEM>
0

>  <SCORE.SYSTEM.CONST>
0

>  <SCORE.SYSTEM.DIHEDRAL>
0

>  <SCORE.SYSTEM.SOLV>
0

>  <SCORE.SYSTEM.norm>
0

>  <SCORE.heavy>
42

>  <SCORE.norm>
-0.357189

>  <RMSD>
8.480

$$$$
3c44_lig
 OpenBabel11021811463D
libRbt.so/2013.1/901 2013/11/27
 42 45  0  0  0  0  0  0  0  0999 V2000
   37.6131   42.9584  -11.6527 C   0  0  2  0  0  0  0  0  0  0  0  0
   38.0299   41.6443  -11.2513 O   0  0  0  0  0  0  0  0  0  0  0  0
   37.7238   39.3847   -7.7887 C   0  0  2  0  0  0  0  0  0  0  0  0
   37.4337   38.6916   -6.5240 N   0  0  0  0  0  0  0  0  0  0  0  0
   36.4447   38.8236  -12.3881 C   0  0  1  0  0  0  0  0  0  0  0  0
   39.1035   36.5031  -14.0210 C   0  0  1  0  0  0  0  0  0  0  0  0
   36.3606   42.8413  -12.5276 C   0  0  2  0  0  0  0  0  0  0  0  0
   35.3075   42.0837  -11.8362 N   0  0  0  0  0  0  0  0  0  0  0  0
   37.7632   40.9008   -7.5765 C   0  0  0  0  0  0  0  0  0  0  0  0
   36.8434   37.3758  -12.0986 C   0  0  2  0  0  0  0  0  0  0  0  0
   38.1876   37.3266  -11.6164 O   0  0  0  0  0  0  0  0  0  0  0  0
   40.2419   36.9601  -14.9391 C   0  0  2  0  0  0  0  0  0  0  0  0
   39.7675   36.8979  -16.3284 N   0  0  0  0  0  0  0  0  0  0  0  0
   36.6747   42.1577  -13.8607 C   0  0  1  0  0  0  0  0  0  0  0  0
   35.5191   42.2135  -14.7026 O   0  0  0  0  0  0  0  0  0  0  0  0
   38.2212   41.5439   -8.8898 C   0  0  2  0  0  0  0  0  0  0  0  0
   38.2126   43.0073   -8.7437 N   0  0  0  0  0  0  0  0  0  0  0  0
   36.8083   36.8109  -13.5172 C   0  0  2  0  0  0  0  0  0  0  0  0
   37.9262   37.2864  -14.2848 O   0  0  0  0  0  0  0  0  0  0  0  0
   41.4695   36.0515  -14.7933 C   0  0  1  0  0  0  0  0  0  0  0  0
   42.0968   36.2595  -13.5252 O   0  0  0  0  0  0  0  0  0  0  0  0
   37.8419   42.8698  -14.5469 C   0  0  2  0  0  0  0  0  0  0  0  0
   38.2033   42.1632  -15.7365 O   0  0  0  0  0  0  0  0  0  0  0  0
   37.3404   41.1605  -10.0854 C   0  0  2  0  0  0  0  0  0  0  0  0
   35.5279   37.4457  -14.0366 C   0  0  2  0  0  0  0  0  0  0  0  0
   35.3715   38.7009  -13.3398 O   0  0  0  0  0  0  0  0  0  0  0  0
   41.0795   34.5773  -14.9128 C   0  0  2  0  0  0  0  0  0  0  0  0
   40.6576   34.3181  -16.2548 O   0  0  0  0  0  0  0  0  0  0  0  0
   39.0388   42.9239  -13.5962 C   0  0  2  0  0  0  0  0  0  0  0  0
   38.6760   43.6040  -12.3784 O   0  0  0  0  0  0  0  0  0  0  0  0
   37.0670   39.6629  -10.2085 C   0  0  2  0  0  0  0  0  0  0  0  0
   36.0167   39.4481  -11.1652 O   0  0  0  0  0  0  0  0  0  0  0  0
   34.3473   36.5124  -13.7598 C   0  0  0  0  0  0  0  0  0  0  0  0
   33.1556   37.0958  -14.2913 O   0  0  0  0  0  0  0  0  0  0  0  0
   39.9446   34.2813  -13.9288 C   0  0  1  0  0  0  0  0  0  0  0  0
   38.8221   35.1158  -14.2651 O   0  0  0  0  0  0  0  0  0  0  0  0
   40.1615   43.6849  -14.3061 C   0  0  0  0  0  0  0  0  0  0  0  0
   40.6862   42.8846  -15.4220 O   0  0  0  0  0  0  0  0  0  0  0  0
   36.6714   39.0647   -8.8533 C   0  0  1  0  0  0  0  0  0  0  0  0
   36.5075   37.6498   -8.9725 O   0  0  0  0  0  0  0  0  0  0  0  0
   39.5089   32.8161  -13.9713 C   0  0  0  0  0  0  0  0  0  0  0  0
   38.8531   32.5435  -15.2578 N   0  0  0  0  0  0  0  0  0  0  0  0
  1  2  1  6  0  0  0
  1  7  1  0  0  0  0
  1 30  1  0  0  0  0
  3  4  1  1  0  0  0
  3  9  1  0  0  0  0
  3 39  1  0  0  0  0
  5 10  1  0  0  0  0
  5 26  1  0  0  0  0
  5 32  1  1  0  0  0
  6 12  1  0  0  0  0
  6 36  1  0  0  0  0
  6 19  1  6  0  0  0
  7  8  1  1  0  0  0
  7 14  1  0  0  0  0
  9 16  1  0  0  0  0
 10 11  1  6  0  0  0
 10 18  1  0  0  0  0
 12 13  1  6  0  0  0
 12 20  1  0  0  0  0
 14 15  1  6  0  0  0
 14 22  1  0  0  0  0
 16 17  1  1  0  0  0
 16 24  1  0  0  0  0
 18 19  1  6  0  0  0
 18 25  1  0  0  0  0
 20 21  1  1  0  0  0
 20 27  1  0  0  0  0
 22 23  1  6  0  0  0
 22 29  1  0  0  0  0
 24  2  1  6  0  0  0
 24 31  1  0  0  0  0
 25 26  1  0  0  0  0
 25 33  1  1  0  0  0
 27 28  1  6  0  0  0
 27 35  1  0  0  0  0
 29 30  1  0  0  0  0
 29 37  1  6  0  0  0
 31 32  1  6  0  0  0
 31 39  1  0  0  0  0
 33 34  1  0  0  0  0
 35 36  1  0  0  0  0
 35 41  1  6  0  0  0
 37 38  1  0  0  0  0
 39 40  1  6  0  0  0
 41 42  1  0  0  0  0
M  END
>  <CHROM.1>
-84.45074855,68.84112879,175.29666240,82.39489960,-93.11903174,-178.05226870
-69.33517832,110.72701727,-68.48131140,37.92782350,38.95387778,-12.70985548
-2.19827376,-1.15150749,3.02785151

>  <Name>
3c44_lig

>  <RI>
0

>  <Rbt.Current_Directory>
/home/itssahil/PROJECTS/Mol_Feturizer/New_Systems/rnas/3c44

>  <Rbt.Executable>
rbdock ($Id: //depot/dev/client3/rdock/2013.1/src/exe/rbdock.cxx#4 $)

>  <Rbt.Library>
libRbt.so (2013.1, Build901 2013/11/27)

>  <Rbt.Parameter_File>
/export/apps/rDock/src/rDock_2013.1_src/data/scripts/dock_solv.prm

>  <Rbt.Receptor>
prm/pocket_docking_7.prm

>  <SCORE>
-16.385

>  <SCORE.INTER>
-20.3204

>  <SCORE.INTER.CONST>
1

>  <SCORE.INTER.POLAR>
-2.71492

>  <SCORE.INTER.ROT>
9

>  <SCORE.INTER.SOLV>
15.304

>  <SCORE.INTER.VDW>
-19.1985

>  <SCORE.INTER.norm>
-0.48382

>  <SCORE.INTRA>
3.93547

>  <SCORE.INTRA.DIHEDRAL>
2.16046

>  <SCORE.INTRA.DIHEDRAL.0>
14.8538

>  <SCORE.INTRA.POLAR>
0

>  <SCORE.INTRA.POLAR.0>
0

>  <SCORE.INTRA.REPUL>
0

>  <SCORE.INTRA.REPUL.0>
0

>  <SCORE.INTRA.SOLV>
1.57892

>  <SCORE.INTRA.SOLV.lig_0>
-100.951

>  <SCORE.INTRA.VDW>
2.06578

>  <SCORE.INTRA.VDW.0>
-5.71388

>  <SCORE.INTRA.norm>
0.0937016

>  <SCORE.RESTR>
0

>  <SCORE.RESTR.CAVITY>
0

>  <SCORE.RESTR.norm>
0

>  <SCORE.SYSTEM>
0

>  <SCORE.SYSTEM.CONST>
0

>  <SCORE.SYSTEM.DIHEDRAL>
0

>  <SCORE.SYSTEM.SOLV>
0

>  <SCORE.SYSTEM.norm>
0

>  <SCORE.heavy>
42

>  <SCORE.norm>
-0.390118

>  <RMSD>
8.526

$$$$
3c44_lig
 OpenBabel11021811463D
libRbt.so/2013.1/901 2013/11/27
 42 45  0  0  0  0  0  0  0  0999 V2000
   39.0784   37.7412  -10.8877 C   0  0  2  0  0  0  0  0  0  0  0  0
   38.8897   37.4416  -12.2793 O   0  0  0  0  0  0  0  0  0  0  0  0
   40.6959   35.1994  -15.2625 C   0  0  2  0  0  0  0  0  0  0  0  0
   41.4618   34.3259  -16.1648 N   0  0  0  0  0  0  0  0  0  0  0  0
   36.8538   34.5497  -12.5176 C   0  0  1  0  0  0  0  0  0  0  0  0
   33.7117   35.2445  -14.8191 C   0  0  1  0  0  0  0  0  0  0  0  0
   37.8408   38.4752  -10.3610 C   0  0  2  0  0  0  0  0  0  0  0  0
   36.6196   37.7017  -10.6284 N   0  0  0  0  0  0  0  0  0  0  0  0
   41.6333   36.1313  -14.4892 C   0  0  0  0  0  0  0  0  0  0  0  0
   36.4320   33.9615  -13.8648 C   0  0  2  0  0  0  0  0  0  0  0  0
   36.5052   34.9645  -14.8799 O   0  0  0  0  0  0  0  0  0  0  0  0
   33.5926   36.7688  -14.9200 C   0  0  2  0  0  0  0  0  0  0  0  0
   32.7589   37.2413  -13.8062 N   0  0  0  0  0  0  0  0  0  0  0  0
   37.7034   39.8613  -10.9959 C   0  0  1  0  0  0  0  0  0  0  0  0
   36.6325   40.5664  -10.3608 O   0  0  0  0  0  0  0  0  0  0  0  0
   40.7647   37.1109  -13.6929 C   0  0  2  0  0  0  0  0  0  0  0  0
   41.6309   37.9851  -12.8875 N   0  0  0  0  0  0  0  0  0  0  0  0
   34.9628   33.6676  -13.5682 C   0  0  2  0  0  0  0  0  0  0  0  0
   34.1987   34.8835  -13.5146 O   0  0  0  0  0  0  0  0  0  0  0  0
   32.9364   37.1866  -16.2425 C   0  0  1  0  0  0  0  0  0  0  0  0
   33.8254   36.9505  -17.3374 O   0  0  0  0  0  0  0  0  0  0  0  0
   39.0060   40.6441  -10.8202 C   0  0  2  0  0  0  0  0  0  0  0  0
   38.9120   41.8938  -11.5090 O   0  0  0  0  0  0  0  0  0  0  0  0
   39.7671   36.4095  -12.7628 C   0  0  2  0  0  0  0  0  0  0  0  0
   35.0750   33.0755  -12.1722 C   0  0  2  0  0  0  0  0  0  0  0  0
   36.2304   33.6815  -11.5531 O   0  0  0  0  0  0  0  0  0  0  0  0
   31.6420   36.4081  -16.4838 C   0  0  2  0  0  0  0  0  0  0  0  0
   30.6720   36.8121  -15.5132 O   0  0  0  0  0  0  0  0  0  0  0  0
   40.1719   39.8312  -11.3849 C   0  0  2  0  0  0  0  0  0  0  0  0
   40.2551   38.5543  -10.7217 O   0  0  0  0  0  0  0  0  0  0  0  0
   38.9646   35.2944  -13.4300 C   0  0  2  0  0  0  0  0  0  0  0  0
   38.2887   34.5257  -12.4215 O   0  0  0  0  0  0  0  0  0  0  0  0
   35.2384   31.5575  -12.2738 C   0  0  0  0  0  0  0  0  0  0  0  0
   36.5637   31.2587  -12.7181 O   0  0  0  0  0  0  0  0  0  0  0  0
   31.9315   34.9099  -16.3589 C   0  0  1  0  0  0  0  0  0  0  0  0
   32.4211   34.6506  -15.0314 O   0  0  0  0  0  0  0  0  0  0  0  0
   41.4550   40.6306  -11.1439 C   0  0  0  0  0  0  0  0  0  0  0  0
   41.4607   41.8396  -11.9801 O   0  0  0  0  0  0  0  0  0  0  0  0
   39.8772   34.3830  -14.2592 C   0  0  1  0  0  0  0  0  0  0  0  0
   39.0959   33.4022  -14.9452 O   0  0  0  0  0  0  0  0  0  0  0  0
   30.6869   34.0571  -16.6084 C   0  0  0  0  0  0  0  0  0  0  0  0
   30.1689   34.3394  -17.9543 N   0  0  0  0  0  0  0  0  0  0  0  0
  1  2  1  6  0  0  0
  1  7  1  0  0  0  0
  1 30  1  0  0  0  0
  3  4  1  6  0  0  0
  3  9  1  0  0  0  0
  3 39  1  0  0  0  0
  5 10  1  0  0  0  0
  5 26  1  0  0  0  0
  5 32  1  1  0  0  0
  6 12  1  0  0  0  0
  6 36  1  0  0  0  0
  6 19  1  1  0  0  0
  7  8  1  6  0  0  0
  7 14  1  0  0  0  0
  9 16  1  0  0  0  0
 10 11  1  6  0  0  0
 10 18  1  0  0  0  0
 12 13  1  1  0  0  0
 12 20  1  0  0  0  0
 14 15  1  1  0  0  0
 14 22  1  0  0  0  0
 16 17  1  1  0  0  0
 16 24  1  0  0  0  0
 18 19  1  1  0  0  0
 18 25  1  0  0  0  0
 20 21  1  6  0  0  0
 20 27  1  0  0  0  0
 22 23  1  6  0  0  0
 22 29  1  0  0  0  0
 24  2  1  6  0  0  0
 24 31  1  0  0  0  0
 25 26  1  0  0  0  0
 25 33  1  6  0  0  0
 27 28  1  1  0  0  0
 27 35  1  0  0  0  0
 29 30  1  0  0  0  0
 29 37  1  1  0  0  0
 31 32  1  1  0  0  0
 31 39  1  0  0  0  0
 33 34  1  0  0  0  0
 35 36  1  0  0  0  0
 35 41  1  1  0  0  0
 37 38  1  0  0  0  0
 39 40  1  6  0  0  0
 41 42  1  0  0  0  0
M  END
>  <CHROM.1>
-161.40114744,60.90850463,-149.82630516,88.26539652,-109.77920445,74.07095637
-68.48426916,118.07091520,58.70559409,36.81664622,36.34454260,-13.45414297
0.57243656,-0.27775094,0.31662956

>  <Name>
3c44_lig

>  <RI>
0

>  <Rbt.Current_Directory>
/home/itssahil/PROJECTS/Mol_Feturizer/New_Systems/rnas/3c44

>  <Rbt.Executable>
rbdock ($Id: //depot/dev/client3/rdock/2013.1/src/exe/rbdock.cxx#4 $)

>  <Rbt.Library>
libRbt.so (2013.1, Build901 2013/11/27)

>  <Rbt.Parameter_File>
/export/apps/rDock/src/rDock_2013.1_src/data/scripts/dock_solv.prm

>  <Rbt.Receptor>
prm/pocket_docking_4.prm

>  <SCORE>
-12.5177

>  <SCORE.INTER>
-19.0463

>  <SCORE.INTER.CONST>
1

>  <SCORE.INTER.POLAR>
-2.24627

>  <SCORE.INTER.ROT>
9

>  <SCORE.INTER.SOLV>
21.4816

>  <SCORE.INTER.VDW>
-21.9705

>  <SCORE.INTER.norm>
-0.453484

>  <SCORE.INTRA>
6.52234

>  <SCORE.INTRA.DIHEDRAL>
8.52691

>  <SCORE.INTRA.DIHEDRAL.0>
14.8538

>  <SCORE.INTRA.POLAR>
0

>  <SCORE.INTRA.POLAR.0>
0

>  <SCORE.INTRA.REPUL>
0

>  <SCORE.INTRA.REPUL.0>
0

>  <SCORE.INTRA.SOLV>
0.563083

>  <SCORE.INTRA.SOLV.lig_0>
-100.951

>  <SCORE.INTRA.VDW>
1.97735

>  <SCORE.INTRA.VDW.0>
-5.71388

>  <SCORE.INTRA.norm>
0.155294

>  <SCORE.RESTR>
0.00632753

>  <SCORE.RESTR.CAVITY>
0.00632753

>  <SCORE.RESTR.norm>
0.000150655

>  <SCORE.SYSTEM>
0

>  <SCORE.SYSTEM.CONST>
0

>  <SCORE.SYSTEM.DIHEDRAL>
0

>  <SCORE.SYSTEM.SOLV>
0

>  <SCORE.SYSTEM.norm>
0

>  <SCORE.heavy>
42

>  <SCORE.norm>
-0.29804

>  <RMSD>
8.541

$$$$
3c44_lig
 OpenBabel11021811463D
libRbt.so/2013.1/901 2013/11/27
 42 45  0  0  0  0  0  0  0  0999 V2000
   35.7566   41.2513  -11.7764 C   0  0  2  0  0  0  0  0  0  0  0  0
   36.8705   41.9683  -12.3304 O   0  0  0  0  0  0  0  0  0  0  0  0
   38.3743   42.1991  -16.1872 C   0  0  2  0  0  0  0  0  0  0  0  0
   38.9428   42.0699  -17.5378 N   0  0  0  0  0  0  0  0  0  0  0  0
   35.3166   39.5878  -15.1649 C   0  0  1  0  0  0  0  0  0  0  0  0
   36.1347   35.5829  -16.2268 C   0  0  1  0  0  0  0  0  0  0  0  0
   35.2968   41.9532  -10.4943 C   0  0  2  0  0  0  0  0  0  0  0  0
   35.0063   43.3716  -10.7488 N   0  0  0  0  0  0  0  0  0  0  0  0
   39.3530   41.6665  -15.1366 C   0  0  0  0  0  0  0  0  0  0  0  0
   35.6593   38.5618  -14.0837 C   0  0  2  0  0  0  0  0  0  0  0  0
   37.0691   38.5499  -13.8513 O   0  0  0  0  0  0  0  0  0  0  0  0
   37.2899   35.2354  -17.1715 C   0  0  2  0  0  0  0  0  0  0  0  0
   37.2676   36.1818  -18.2953 N   0  0  0  0  0  0  0  0  0  0  0  0
   36.3548   41.8496   -9.3929 C   0  0  1  0  0  0  0  0  0  0  0  0
   35.8200   42.3764   -8.1748 O   0  0  0  0  0  0  0  0  0  0  0  0
   38.7667   41.9739  -13.7546 C   0  0  2  0  0  0  0  0  0  0  0  0
   39.6510   41.4218  -12.7173 N   0  0  0  0  0  0  0  0  0  0  0  0
   35.2701   37.2784  -14.8147 C   0  0  2  0  0  0  0  0  0  0  0  0
   36.2239   36.9664  -15.8433 O   0  0  0  0  0  0  0  0  0  0  0  0
   37.1465   33.8100  -17.7208 C   0  0  1  0  0  0  0  0  0  0  0  0
   37.3936   32.8504  -16.6898 O   0  0  0  0  0  0  0  0  0  0  0  0
   36.7486   40.3857   -9.1874 C   0  0  2  0  0  0  0  0  0  0  0  0
   37.8141   40.3037   -8.2372 O   0  0  0  0  0  0  0  0  0  0  0  0
   37.3571   41.4015  -13.5595 C   0  0  2  0  0  0  0  0  0  0  0  0
   33.9581   37.7092  -15.4514 C   0  0  2  0  0  0  0  0  0  0  0  0
   34.0539   39.1312  -15.6842 O   0  0  0  0  0  0  0  0  0  0  0  0
   35.7434   33.5765  -18.2835 C   0  0  2  0  0  0  0  0  0  0  0  0
   35.5756   34.3802  -19.4548 O   0  0  0  0  0  0  0  0  0  0  0  0
   37.1992   39.7849  -10.5197 C   0  0  2  0  0  0  0  0  0  0  0  0
   36.1447   39.8935  -11.4961 O   0  0  0  0  0  0  0  0  0  0  0  0
   36.3937   41.7024  -14.7057 C   0  0  2  0  0  0  0  0  0  0  0  0
   35.2167   40.8905  -14.5635 O   0  0  0  0  0  0  0  0  0  0  0  0
   32.8009   37.3838  -14.5047 C   0  0  0  0  0  0  0  0  0  0  0  0
   32.7717   35.9743  -14.2693 O   0  0  0  0  0  0  0  0  0  0  0  0
   34.7106   33.9588  -17.2201 C   0  0  1  0  0  0  0  0  0  0  0  0
   34.8852   35.3494  -16.8959 O   0  0  0  0  0  0  0  0  0  0  0  0
   37.5358   38.3118  -10.2745 C   0  0  0  0  0  0  0  0  0  0  0  0
   36.3139   37.5627   -9.9482 O   0  0  0  0  0  0  0  0  0  0  0  0
   37.0549   41.4330  -16.0627 C   0  0  1  0  0  0  0  0  0  0  0  0
   36.1689   41.8051  -17.1208 O   0  0  0  0  0  0  0  0  0  0  0  0
   33.2759   33.7333  -17.6990 C   0  0  0  0  0  0  0  0  0  0  0  0
   32.3445   34.0781  -16.6158 N   0  0  0  0  0  0  0  0  0  0  0  0
  1  2  1  1  0  0  0
  1  7  1  0  0  0  0
  1 30  1  0  0  0  0
  3  4  1  6  0  0  0
  3  9  1  0  0  0  0
  3 39  1  0  0  0  0
  5 10  1  0  0  0  0
  5 26  1  0  0  0  0
  5 32  1  1  0  0  0
  6 12  1  0  0  0  0
  6 36  1  0  0  0  0
  6 19  1  6  0  0  0
  7  8  1  6  0  0  0
  7 14  1  0  0  0  0
  9 16  1  0  0  0  0
 10 11  1  6  0  0  0
 10 18  1  0  0  0  0
 12 13  1  6  0  0  0
 12 20  1  0  0  0  0
 14 15  1  1  0  0  0
 14 22  1  0  0  0  0
 16 17  1  1  0  0  0
 16 24  1  0  0  0  0
 18 19  1  6  0  0  0
 18 25  1  0  0  0  0
 20 21  1  1  0  0  0
 20 27  1  0  0  0  0
 22 23  1  1  0  0  0
 22 29  1  0  0  0  0
 24  2  1  1  0  0  0
 24 31  1  0  0  0  0
 25 26  1  0  0  0  0
 25 33  1  1  0  0  0
 27 28  1  6  0  0  0
 27 35  1  0  0  0  0
 29 30  1  0  0  0  0
 29 37  1  1  0  0  0
 31 32  1  1  0  0  0
 31 39  1  0  0  0  0
 33 34  1  0  0  0  0
 35 36  1  0  0  0  0
 35 41  1  6  0  0  0
 37 38  1  0  0  0  0
 39 40  1  6  0  0  0
 41 42  1  0  0  0  0
M  END
>  <CHROM.1>
-178.65604908,98.69265947,-171.91486895,160.81293242,-162.02257552,-60.43168954
67.51959988,-86.97383032,178.15199598,36.14840135,38.68201209,-14.26389015
1.20371942,1.08784247,1.08283871

>  <Name>
3c44_lig

>  <RI>
0

>  <Rbt.Current_Directory>
/home/itssahil/PROJECTS/Mol_Feturizer/New_Systems/rnas/3c44

>  <Rbt.Executable>
rbdock ($Id: //depot/dev/client3/rdock/2013.1/src/exe/rbdock.cxx#4 $)

>  <Rbt.Library>
libRbt.so (2013.1, Build901 2013/11/27)

>  <Rbt.Parameter_File>
/export/apps/rDock/src/rDock_2013.1_src/data/scripts/dock_solv.prm

>  <Rbt.Receptor>
prm/pocket_docking_6.prm

>  <SCORE>
-13.5997

>  <SCORE.INTER>
-13.5871

>  <SCORE.INTER.CONST>
1

>  <SCORE.INTER.POLAR>
-2.18494

>  <SCORE.INTER.ROT>
9

>  <SCORE.INTER.SOLV>
15.6412

>  <SCORE.INTER.VDW>
-16.5887

>  <SCORE.INTER.norm>
-0.323502

>  <SCORE.INTRA>
-0.0126125

>  <SCORE.INTRA.DIHEDRAL>
-2.76601

>  <SCORE.INTRA.DIHEDRAL.0>
14.8538

>  <SCORE.INTRA.POLAR>
0

>  <SCORE.INTRA.POLAR.0>
0

>  <SCORE.INTRA.REPUL>
0

>  <SCORE.INTRA.REPUL.0>
0

>  <SCORE.INTRA.SOLV>
-1.2175

>  <SCORE.INTRA.SOLV.lig_0>
-100.951

>  <SCORE.INTRA.VDW>
1.97914

>  <SCORE.INTRA.VDW.0>
-5.71388

>  <SCORE.INTRA.norm>
-0.000300297

>  <SCORE.RESTR>
0

>  <SCORE.RESTR.CAVITY>
0

>  <SCORE.RESTR.norm>
0

>  <SCORE.SYSTEM>
0

>  <SCORE.SYSTEM.CONST>
0

>  <SCORE.SYSTEM.DIHEDRAL>
0

>  <SCORE.SYSTEM.SOLV>
0

>  <SCORE.SYSTEM.norm>
0

>  <SCORE.heavy>
42

>  <SCORE.norm>
-0.323802

>  <RMSD>
8.556

$$$$
3c44_lig
 OpenBabel11021811463D
libRbt.so/2013.1/901 2013/11/27
 42 45  0  0  0  0  0  0  0  0999 V2000
   36.1667   40.1031  -12.2615 C   0  0  2  0  0  0  0  0  0  0  0  0
   37.4158   40.6255  -12.7397 O   0  0  0  0  0  0  0  0  0  0  0  0
   40.7356   39.3037  -14.8423 C   0  0  2  0  0  0  0  0  0  0  0  0
   41.7980   38.6583  -15.6288 N   0  0  0  0  0  0  0  0  0  0  0  0
   36.5124   39.4606  -15.9143 C   0  0  1  0  0  0  0  0  0  0  0  0
   33.6454   36.4948  -16.6762 C   0  0  1  0  0  0  0  0  0  0  0  0
   35.2568   41.2691  -11.8607 C   0  0  2  0  0  0  0  0  0  0  0  0
   35.1020   42.2189  -12.9719 N   0  0  0  0  0  0  0  0  0  0  0  0
   40.2878   38.3960  -13.6930 C   0  0  0  0  0  0  0  0  0  0  0  0
   35.3728   39.7775  -16.8838 C   0  0  2  0  0  0  0  0  0  0  0  0
   34.2844   40.3775  -16.1786 O   0  0  0  0  0  0  0  0  0  0  0  0
   32.6567   35.9983  -15.6160 C   0  0  2  0  0  0  0  0  0  0  0  0
   33.3784   35.8526  -14.3443 N   0  0  0  0  0  0  0  0  0  0  0  0
   35.8084   42.0121  -10.6413 C   0  0  1  0  0  0  0  0  0  0  0  0
   34.8520   42.9849  -10.2099 O   0  0  0  0  0  0  0  0  0  0  0  0
   39.3001   39.1886  -12.8303 C   0  0  2  0  0  0  0  0  0  0  0  0
   38.7996   38.3274  -11.7482 N   0  0  0  0  0  0  0  0  0  0  0  0
   34.9759   38.3585  -17.2865 C   0  0  2  0  0  0  0  0  0  0  0  0
   34.2869   37.6962  -16.2134 O   0  0  0  0  0  0  0  0  0  0  0  0
   32.0618   34.6392  -16.0069 C   0  0  1  0  0  0  0  0  0  0  0  0
   31.1641   34.7860  -17.1103 O   0  0  0  0  0  0  0  0  0  0  0  0
   36.0768   41.0211   -9.5072 C   0  0  2  0  0  0  0  0  0  0  0  0
   36.6939   41.7012   -8.4110 O   0  0  0  0  0  0  0  0  0  0  0  0
   38.1053   39.7275  -13.6268 C   0  0  2  0  0  0  0  0  0  0  0  0
   36.3477   37.7300  -17.4746 C   0  0  2  0  0  0  0  0  0  0  0  0
   37.2481   38.4163  -16.5782 O   0  0  0  0  0  0  0  0  0  0  0  0
   33.1611   33.6494  -16.3961 C   0  0  2  0  0  0  0  0  0  0  0  0
   33.9289   33.3303  -15.2322 O   0  0  0  0  0  0  0  0  0  0  0  0
   36.9987   39.9080  -10.0075 C   0  0  2  0  0  0  0  0  0  0  0  0
   36.4021   39.2376  -11.1352 O   0  0  0  0  0  0  0  0  0  0  0  0
   38.4857   40.4421  -14.9219 C   0  0  2  0  0  0  0  0  0  0  0  0
   37.3067   40.6435  -15.7182 O   0  0  0  0  0  0  0  0  0  0  0  0
   36.7891   37.8957  -18.9304 C   0  0  0  0  0  0  0  0  0  0  0  0
   38.0496   37.2471  -19.1133 O   0  0  0  0  0  0  0  0  0  0  0  0
   34.0512   34.2891  -17.4650 C   0  0  1  0  0  0  0  0  0  0  0  0
   34.6362   35.4826  -16.9149 O   0  0  0  0  0  0  0  0  0  0  0  0
   37.1989   38.9187   -8.8565 C   0  0  0  0  0  0  0  0  0  0  0  0
   36.3544   37.7325   -9.0582 O   0  0  0  0  0  0  0  0  0  0  0  0
   39.5193   39.6310  -15.7123 C   0  0  1  0  0  0  0  0  0  0  0  0
   39.9271   40.3580  -16.8735 O   0  0  0  0  0  0  0  0  0  0  0  0
   35.1678   33.3512  -17.9256 C   0  0  0  0  0  0  0  0  0  0  0  0
   35.8309   33.9299  -19.1025 N   0  0  0  0  0  0  0  0  0  0  0  0
  1  2  1  1  0  0  0
  1  7  1  0  0  0  0
  1 30  1  0  0  0  0
  3  4  1  6  0  0  0
  3  9  1  0  0  0  0
  3 39  1  0  0  0  0
  5 10  1  0  0  0  0
  5 26  1  0  0  0  0
  5 32  1  6  0  0  0
  6 12  1  0  0  0  0
  6 36  1  0  0  0  0
  6 19  1  1  0  0  0
  7  8  1  6  0  0  0
  7 14  1  0  0  0  0
  9 16  1  0  0  0  0
 10 11  1  1  0  0  0
 10 18  1  0  0  0  0
 12 13  1  1  0  0  0
 12 20  1  0  0  0  0
 14 15  1  1  0  0  0
 14 22  1  0  0  0  0
 16 17  1  1  0  0  0
 16 24  1  0  0  0  0
 18 19  1  1  0  0  0
 18 25  1  0  0  0  0
 20 21  1  6  0  0  0
 20 27  1  0  0  0  0
 22 23  1  1  0  0  0
 22 29  1  0  0  0  0
 24  2  1  1  0  0  0
 24 31  1  0  0  0  0
 25 26  1  0  0  0  0
 25 33  1  6  0  0  0
 27 28  1  1  0  0  0
 27 35  1  0  0  0  0
 29 30  1  0  0  0  0
 29 37  1  1  0  0  0
 31 32  1  6  0  0  0
 31 39  1  0  0  0  0
 33 34  1  0  0  0  0
 35 36  1  0  0  0  0
 35 41  1  1  0  0  0
 37 38  1  0  0  0  0
 39 40  1  6  0  0  0
 41 42  1  0  0  0  0
M  END
>  <CHROM.1>
-155.80347584,-174.48102108,-166.49638381,166.69571570,-107.73069722,-177.27516707
101.72012735,-50.74267318,170.24725656,36.23103230,38.36609464,-14.53223987
1.19056518,0.53351749,1.06627897

>  <Name>
3c44_lig

>  <RI>
0

>  <Rbt.Current_Directory>
/home/itssahil/PROJECTS/Mol_Feturizer/New_Systems/rnas/3c44

>  <Rbt.Executable>
rbdock ($Id: //depot/dev/client3/rdock/2013.1/src/exe/rbdock.cxx#4 $)

>  <Rbt.Library>
libRbt.so (2013.1, Build901 2013/11/27)

>  <Rbt.Parameter_File>
/export/apps/rDock/src/rDock_2013.1_src/data/scripts/dock_solv.prm

>  <Rbt.Receptor>
prm/pocket_docking_6.prm

>  <SCORE>
-14.1648

>  <SCORE.INTER>
-16.8665

>  <SCORE.INTER.CONST>
1

>  <SCORE.INTER.POLAR>
-2.75686

>  <SCORE.INTER.ROT>
9

>  <SCORE.INTER.SOLV>
12.9177

>  <SCORE.INTER.VDW>
-15.9607

>  <SCORE.INTER.norm>
-0.401584

>  <SCORE.INTRA>
2.70175

>  <SCORE.INTRA.DIHEDRAL>
1.26311

>  <SCORE.INTRA.DIHEDRAL.0>
14.8538

>  <SCORE.INTRA.POLAR>
0

>  <SCORE.INTRA.POLAR.0>
0

>  <SCORE.INTRA.REPUL>
0

>  <SCORE.INTRA.REPUL.0>
0

>  <SCORE.INTRA.SOLV>
-0.333214

>  <SCORE.INTRA.SOLV.lig_0>
-100.951

>  <SCORE.INTRA.VDW>
2.2368

>  <SCORE.INTRA.VDW.0>
-5.71388

>  <SCORE.INTRA.norm>
0.0643275

>  <SCORE.RESTR>
0

>  <SCORE.RESTR.CAVITY>
0

>  <SCORE.RESTR.norm>
0

>  <SCORE.SYSTEM>
0

>  <SCORE.SYSTEM.CONST>
0

>  <SCORE.SYSTEM.DIHEDRAL>
0

>  <SCORE.SYSTEM.SOLV>
0

>  <SCORE.SYSTEM.norm>
0

>  <SCORE.heavy>
42

>  <SCORE.norm>
-0.337257

>  <RMSD>
8.557

$$$$
3c44_lig
 OpenBabel11021811463D
libRbt.so/2013.1/901 2013/11/27
 42 45  0  0  0  0  0  0  0  0999 V2000
   38.0351   41.7726   -9.4790 C   0  0  2  0  0  0  0  0  0  0  0  0
   39.3385   42.2120   -9.8912 O   0  0  0  0  0  0  0  0  0  0  0  0
   40.6645   43.0980  -13.7182 C   0  0  2  0  0  0  0  0  0  0  0  0
   41.1292   43.2005  -15.1101 N   0  0  0  0  0  0  0  0  0  0  0  0
   37.3394   40.6673  -12.6437 C   0  0  1  0  0  0  0  0  0  0  0  0
   36.3391   36.5818  -13.3023 C   0  0  1  0  0  0  0  0  0  0  0  0
   37.8252   42.1399   -8.0063 C   0  0  2  0  0  0  0  0  0  0  0  0
   38.0504   43.5760   -7.7873 N   0  0  0  0  0  0  0  0  0  0  0  0
   41.5724   42.1633  -12.9137 C   0  0  0  0  0  0  0  0  0  0  0  0
   35.9405   40.1012  -12.3948 C   0  0  2  0  0  0  0  0  0  0  0  0
   35.8473   39.5992  -11.0603 O   0  0  0  0  0  0  0  0  0  0  0  0
   37.1530   35.4792  -12.6170 C   0  0  2  0  0  0  0  0  0  0  0  0
   38.5775   35.7265  -12.8793 N   0  0  0  0  0  0  0  0  0  0  0  0
   38.7615   41.3426   -7.0947 C   0  0  1  0  0  0  0  0  0  0  0  0
   38.4215   41.6003   -5.7289 O   0  0  0  0  0  0  0  0  0  0  0  0
   41.1263   42.2263  -11.4491 C   0  0  2  0  0  0  0  0  0  0  0  0
   41.9373   41.2928  -10.6530 N   0  0  0  0  0  0  0  0  0  0  0  0
   35.9647   38.9211  -13.3642 C   0  0  2  0  0  0  0  0  0  0  0  0
   36.8105   37.8700  -12.8694 O   0  0  0  0  0  0  0  0  0  0  0  0
   36.7811   34.0950  -13.1644 C   0  0  1  0  0  0  0  0  0  0  0  0
   35.4715   33.7212  -12.7286 O   0  0  0  0  0  0  0  0  0  0  0  0
   38.6181   39.8473   -7.3838 C   0  0  2  0  0  0  0  0  0  0  0  0
   39.5717   39.1148   -6.6097 O   0  0  0  0  0  0  0  0  0  0  0  0
   39.6440   41.8820  -11.2574 C   0  0  2  0  0  0  0  0  0  0  0  0
   36.6160   39.5705  -14.5751 C   0  0  2  0  0  0  0  0  0  0  0  0
   37.4833   40.6112  -14.0750 O   0  0  0  0  0  0  0  0  0  0  0  0
   36.8126   34.0820  -14.6936 C   0  0  2  0  0  0  0  0  0  0  0  0
   38.1663   34.2360  -15.1293 O   0  0  0  0  0  0  0  0  0  0  0  0
   38.8555   39.5886   -8.8724 C   0  0  2  0  0  0  0  0  0  0  0  0
   37.9219   40.3492   -9.6643 O   0  0  0  0  0  0  0  0  0  0  0  0
   38.7014   42.6162  -12.2088 C   0  0  2  0  0  0  0  0  0  0  0  0
   37.3979   42.0150  -12.1449 O   0  0  0  0  0  0  0  0  0  0  0  0
   35.5327   40.1490  -15.4879 C   0  0  0  0  0  0  0  0  0  0  0  0
   34.8120   41.1579  -14.7767 O   0  0  0  0  0  0  0  0  0  0  0  0
   35.9477   35.2308  -15.2191 C   0  0  1  0  0  0  0  0  0  0  0  0
   36.4888   36.4694  -14.7266 O   0  0  0  0  0  0  0  0  0  0  0  0
   38.6547   38.0915   -9.1213 C   0  0  0  0  0  0  0  0  0  0  0  0
   37.2495   37.7259   -8.8913 O   0  0  0  0  0  0  0  0  0  0  0  0
   39.2294   42.5700  -13.6476 C   0  0  1  0  0  0  0  0  0  0  0  0
   38.3809   43.3371  -14.5047 O   0  0  0  0  0  0  0  0  0  0  0  0
   35.9093   35.2744  -16.7472 C   0  0  0  0  0  0  0  0  0  0  0  0
   35.1980   34.0896  -17.2472 N   0  0  0  0  0  0  0  0  0  0  0  0
  1  2  1  1  0  0  0
  1  7  1  0  0  0  0
  1 30  1  0  0  0  0
  3  4  1  6  0  0  0
  3  9  1  0  0  0  0
  3 39  1  0  0  0  0
  5 10  1  0  0  0  0
  5 26  1  0  0  0  0
  5 32  1  6  0  0  0
  6 12  1  0  0  0  0
  6 36  1  0  0  0  0
  6 19  1  1  0  0  0
  7  8  1  6  0  0  0
  7 14  1  0  0  0  0
  9 16  1  0  0  0  0
 10 11  1  1  0  0  0
 10 18  1  0  0  0  0
 12 13  1  6  0  0  0
 12 20  1  0  0  0  0
 14 15  1  1  0  0  0
 14 22  1  0  0  0  0
 16 17  1  1  0  0  0
 16 24  1  0  0  0  0
 18 19  1  1  0  0  0
 18 25  1  0  0  0  0
 20 21  1  6  0  0  0
 20 27  1  0  0  0  0
 22 23  1  1  0  0  0
 22 29  1  0  0  0  0
 24  2  1  1  0  0  0
 24 31  1  0  0  0  0
 25 26  1  0  0  0  0
 25 33  1  6  0  0  0
 27 28  1  1  0  0  0
 27 35  1  0  0  0  0
 29 30  1  0  0  0  0
 29 37  1  1  0  0  0
 31 32  1  6  0  0  0
 31 39  1  0  0  0  0
 33 34  1  0  0  0  0
 35 36  1  0  0  0  0
 35 41  1  6  0  0  0
 37 38  1  0  0  0  0
 39 40  1  6  0  0  0
 41 42  1  0  0  0  0
M  END
>  <CHROM.1>
178.56595924,174.54175485,-172.91421406,149.30562266,-171.50229214,61.89461144
66.09975813,-66.23623390,67.15061084,37.83975937,39.40330418,-12.03079593
0.34872424,1.21740310,1.89886371

>  <Name>
3c44_lig

>  <RI>
0

>  <Rbt.Current_Directory>
/home/itssahil/PROJECTS/Mol_Feturizer/New_Systems/rnas/3c44

>  <Rbt.Executable>
rbdock ($Id: //depot/dev/client3/rdock/2013.1/src/exe/rbdock.cxx#4 $)

>  <Rbt.Library>
libRbt.so (2013.1, Build901 2013/11/27)

>  <Rbt.Parameter_File>
/export/apps/rDock/src/rDock_2013.1_src/data/scripts/dock_solv.prm

>  <Rbt.Receptor>
prm/pocket_docking_7.prm

>  <SCORE>
-12.0847

>  <SCORE.INTER>
-8.8404

>  <SCORE.INTER.CONST>
1

>  <SCORE.INTER.POLAR>
-1.85128

>  <SCORE.INTER.ROT>
9

>  <SCORE.INTER.SOLV>
12.854

>  <SCORE.INTER.VDW>
-13.6073

>  <SCORE.INTER.norm>
-0.210486

>  <SCORE.INTRA>
-3.2446

>  <SCORE.INTRA.DIHEDRAL>
-9.68724

>  <SCORE.INTRA.DIHEDRAL.0>
14.8538

>  <SCORE.INTRA.POLAR>
0

>  <SCORE.INTRA.POLAR.0>
0

>  <SCORE.INTRA.REPUL>
0.134212

>  <SCORE.INTRA.REPUL.0>
0

>  <SCORE.INTRA.SOLV>
-3.03861

>  <SCORE.INTRA.SOLV.lig_0>
-100.951

>  <SCORE.INTRA.VDW>
2.44727

>  <SCORE.INTRA.VDW.0>
-5.71388

>  <SCORE.INTRA.norm>
-0.0772524

>  <SCORE.RESTR>
0.000284888

>  <SCORE.RESTR.CAVITY>
0.000284888

>  <SCORE.RESTR.norm>
6.78304e-06

>  <SCORE.SYSTEM>
0

>  <SCORE.SYSTEM.CONST>
0

>  <SCORE.SYSTEM.DIHEDRAL>
0

>  <SCORE.SYSTEM.SOLV>
0

>  <SCORE.SYSTEM.norm>
0

>  <SCORE.heavy>
42

>  <SCORE.norm>
-0.287731

>  <RMSD>
8.573

$$$$
3c44_lig
 OpenBabel11021811463D
libRbt.so/2013.1/901 2013/11/27
 42 45  0  0  0  0  0  0  0  0999 V2000
   36.7327   35.2027  -13.8099 C   0  0  2  0  0  0  0  0  0  0  0  0
   37.1261   36.1062  -12.7656 O   0  0  0  0  0  0  0  0  0  0  0  0
   35.5625   39.9118  -12.2533 C   0  0  2  0  0  0  0  0  0  0  0  0
   35.1487   41.3230  -12.2215 N   0  0  0  0  0  0  0  0  0  0  0  0
   33.9711   36.8079  -15.1548 C   0  0  1  0  0  0  0  0  0  0  0  0
   30.0439   36.1615  -16.3827 C   0  0  1  0  0  0  0  0  0  0  0  0
   36.8947   33.7622  -13.3133 C   0  0  2  0  0  0  0  0  0  0  0  0
   36.1587   33.5549  -12.0578 N   0  0  0  0  0  0  0  0  0  0  0  0
   37.0664   39.7844  -11.9939 C   0  0  0  0  0  0  0  0  0  0  0  0
   33.5908   37.2809  -16.5586 C   0  0  2  0  0  0  0  0  0  0  0  0
   33.1791   38.6486  -16.5181 O   0  0  0  0  0  0  0  0  0  0  0  0
   29.6224   36.5740  -17.7969 C   0  0  2  0  0  0  0  0  0  0  0  0
   29.5174   38.0391  -17.8382 N   0  0  0  0  0  0  0  0  0  0  0  0
   38.3684   33.4120  -13.0923 C   0  0  1  0  0  0  0  0  0  0  0  0
   38.4807   32.0191  -12.7844 O   0  0  0  0  0  0  0  0  0  0  0  0
   37.3965   38.2919  -11.8863 C   0  0  2  0  0  0  0  0  0  0  0  0
   38.8457   38.1267  -11.6978 N   0  0  0  0  0  0  0  0  0  0  0  0
   32.3638   36.4044  -16.8015 C   0  0  2  0  0  0  0  0  0  0  0  0
   31.2487   36.8564  -16.0159 O   0  0  0  0  0  0  0  0  0  0  0  0
   28.2622   35.9689  -18.1680 C   0  0  1  0  0  0  0  0  0  0  0  0
   28.3805   34.5573  -18.3639 O   0  0  0  0  0  0  0  0  0  0  0  0
   39.1710   33.7222  -14.3571 C   0  0  2  0  0  0  0  0  0  0  0  0
   40.5617   33.4979  -14.1107 O   0  0  0  0  0  0  0  0  0  0  0  0
   36.9632   37.4906  -13.1203 C   0  0  2  0  0  0  0  0  0  0  0  0
   32.8619   35.0740  -16.2592 C   0  0  2  0  0  0  0  0  0  0  0  0
   33.8182   35.3779  -15.2207 O   0  0  0  0  0  0  0  0  0  0  0  0
   27.2278   36.2278  -17.0713 C   0  0  2  0  0  0  0  0  0  0  0  0
   26.9435   37.6289  -17.0257 O   0  0  0  0  0  0  0  0  0  0  0  0
   38.9480   35.1807  -14.7601 C   0  0  2  0  0  0  0  0  0  0  0  0
   37.5448   35.4275  -14.9774 O   0  0  0  0  0  0  0  0  0  0  0  0
   35.5299   37.7618  -13.5728 C   0  0  2  0  0  0  0  0  0  0  0  0
   35.3281   37.1962  -14.8782 O   0  0  0  0  0  0  0  0  0  0  0  0
   33.5135   34.2744  -17.3896 C   0  0  0  0  0  0  0  0  0  0  0  0
   34.0038   33.0384  -16.8654 O   0  0  0  0  0  0  0  0  0  0  0  0
   27.7944   35.7532  -15.7305 C   0  0  1  0  0  0  0  0  0  0  0  0
   28.9968   36.4941  -15.4573 O   0  0  0  0  0  0  0  0  0  0  0  0
   39.7296   35.4299  -16.0525 C   0  0  0  0  0  0  0  0  0  0  0  0
   39.5776   36.8307  -16.4718 O   0  0  0  0  0  0  0  0  0  0  0  0
   35.2405   39.2673  -13.6040 C   0  0  1  0  0  0  0  0  0  0  0  0
   33.8707   39.4949  -13.9430 O   0  0  0  0  0  0  0  0  0  0  0  0
   26.8081   35.9585  -14.5801 C   0  0  0  0  0  0  0  0  0  0  0  0
   25.7148   34.9840  -14.7005 N   0  0  0  0  0  0  0  0  0  0  0  0
  1  2  1  1  0  0  0
  1  7  1  0  0  0  0
  1 30  1  0  0  0  0
  3  4  1  6  0  0  0
  3  9  1  0  0  0  0
  3 39  1  0  0  0  0
  5 10  1  0  0  0  0
  5 26  1  0  0  0  0
  5 32  1  6  0  0  0
  6 12  1  0  0  0  0
  6 36  1  0  0  0  0
  6 19  1  1  0  0  0
  7  8  1  1  0  0  0
  7 14  1  0  0  0  0
  9 16  1  0  0  0  0
 10 11  1  1  0  0  0
 10 18  1  0  0  0  0
 12 13  1  1  0  0  0
 12 20  1  0  0  0  0
 14 15  1  6  0  0  0
 14 22  1  0  0  0  0
 16 17  1  6  0  0  0
 16 24  1  0  0  0  0
 18 19  1  1  0  0  0
 18 25  1  0  0  0  0
 20 21  1  1  0  0  0
 20 27  1  0  0  0  0
 22 23  1  1  0  0  0
 22 29  1  0  0  0  0
 24  2  1  1  0  0  0
 24 31  1  0  0  0  0
 25 26  1  0  0  0  0
 25 33  1  6  0  0  0
 27 28  1  1  0  0  0
 27 35  1  0  0  0  0
 29 30  1  0  0  0  0
 29 37  1  6  0  0  0
 31 32  1  6  0  0  0
 31 39  1  0  0  0  0
 33 34  1  0  0  0  0
 35 36  1  0  0  0  0
 35 41  1  1  0  0  0
 37 38  1  0  0  0  0
 39 40  1  1  0  0  0
 41 42  1  0  0  0  0
M  END
>  <CHROM.1>
-177.88286805,135.30883916,-68.18298927,171.62155705,178.69309846,178.78129721
-178.65265526,151.84743520,72.27208338,34.01189892,36.28946621,-14.96444915
-0.06699585,0.29324300,-2.75199299

>  <Name>
3c44_lig

>  <RI>
224

>  <Rbt.Current_Directory>
/home/itssahil/PROJECTS/Mol_Feturizer/New_Systems/rnas/3c44

>  <Rbt.Executable>
rbdock ($Id: //depot/dev/client3/rdock/2013.1/src/exe/rbdock.cxx#4 $)

>  <Rbt.Library>
libRbt.so (2013.1, Build901 2013/11/27)

>  <Rbt.Parameter_File>
/export/apps/rDock/src/rDock_2013.1_src/data/scripts/dock_solv.prm

>  <Rbt.Receptor>
prm/pocket_docking_8.prm

>  <SCORE>
-21.8953

>  <SCORE.INTER>
-20.5254

>  <SCORE.INTER.CONST>
1

>  <SCORE.INTER.POLAR>
-3.55338

>  <SCORE.INTER.ROT>
9

>  <SCORE.INTER.SOLV>
21.7288

>  <SCORE.INTER.VDW>
-18.6819

>  <SCORE.INTER.norm>
-0.4887

>  <SCORE.INTRA>
-1.36992

>  <SCORE.INTRA.DIHEDRAL>
-3.96511

>  <SCORE.INTRA.DIHEDRAL.0>
14.8538

>  <SCORE.INTRA.POLAR>
0

>  <SCORE.INTRA.POLAR.0>
0

>  <SCORE.INTRA.REPUL>
0.0334914

>  <SCORE.INTRA.REPUL.0>
0

>  <SCORE.INTRA.SOLV>
-4.66718

>  <SCORE.INTRA.SOLV.lig_0>
-100.951

>  <SCORE.INTRA.VDW>
2.77877

>  <SCORE.INTRA.VDW.0>
-5.71388

>  <SCORE.INTRA.norm>
-0.0326172

>  <SCORE.RESTR>
0

>  <SCORE.RESTR.CAVITY>
0

>  <SCORE.RESTR.norm>
0

>  <SCORE.SYSTEM>
0

>  <SCORE.SYSTEM.CONST>
0

>  <SCORE.SYSTEM.DIHEDRAL>
0

>  <SCORE.SYSTEM.SOLV>
0

>  <SCORE.SYSTEM.norm>
0

>  <SCORE.heavy>
42

>  <SCORE.norm>
-0.521317

>  <RMSD>
8.578

$$$$
3c44_lig
 OpenBabel11021811463D
libRbt.so/2013.1/901 2013/11/27
 42 45  0  0  0  0  0  0  0  0999 V2000
   36.7127   41.3940  -14.9327 C   0  0  2  0  0  0  0  0  0  0  0  0
   37.0452   40.2197  -14.1761 O   0  0  0  0  0  0  0  0  0  0  0  0
   38.2559   39.8601  -10.2272 C   0  0  2  0  0  0  0  0  0  0  0  0
   38.5193   39.8603   -8.7799 N   0  0  0  0  0  0  0  0  0  0  0  0
   35.4630   37.1733  -12.9277 C   0  0  1  0  0  0  0  0  0  0  0  0
   35.3522   35.1192  -16.2396 C   0  0  1  0  0  0  0  0  0  0  0  0
   35.8598   40.9876  -16.1391 C   0  0  2  0  0  0  0  0  0  0  0  0
   34.6819   40.2183  -15.7127 N   0  0  0  0  0  0  0  0  0  0  0  0
   38.2125   41.2922  -10.7680 C   0  0  0  0  0  0  0  0  0  0  0  0
   36.3743   37.1773  -14.1559 C   0  0  2  0  0  0  0  0  0  0  0  0
   35.6546   37.6495  -15.2964 O   0  0  0  0  0  0  0  0  0  0  0  0
   33.9580   34.6927  -16.7108 C   0  0  2  0  0  0  0  0  0  0  0  0
   33.6795   33.3533  -16.1746 N   0  0  0  0  0  0  0  0  0  0  0  0
   36.6676   40.1531  -17.1362 C   0  0  1  0  0  0  0  0  0  0  0  0
   35.8824   39.9335  -18.3120 O   0  0  0  0  0  0  0  0  0  0  0  0
   38.0920   41.2113  -12.2934 C   0  0  2  0  0  0  0  0  0  0  0  0
   37.9855   42.5703  -12.8457 N   0  0  0  0  0  0  0  0  0  0  0  0
   36.6073   35.6755  -14.3079 C   0  0  2  0  0  0  0  0  0  0  0  0
   35.4281   35.0229  -14.8065 O   0  0  0  0  0  0  0  0  0  0  0  0
   33.8835   34.6389  -18.2424 C   0  0  1  0  0  0  0  0  0  0  0  0
   33.9195   35.9592  -18.7905 O   0  0  0  0  0  0  0  0  0  0  0  0
   37.9531   40.8929  -17.5109 C   0  0  2  0  0  0  0  0  0  0  0  0
   38.7560   40.0638  -18.3552 O   0  0  0  0  0  0  0  0  0  0  0  0
   36.8813   40.3921  -12.7576 C   0  0  2  0  0  0  0  0  0  0  0  0
   36.8315   35.2816  -12.8564 C   0  0  2  0  0  0  0  0  0  0  0  0
   36.0731   36.2089  -12.0500 O   0  0  0  0  0  0  0  0  0  0  0  0
   35.0484   33.8344  -18.8214 C   0  0  2  0  0  0  0  0  0  0  0  0
   34.8898   32.4612  -18.4534 O   0  0  0  0  0  0  0  0  0  0  0  0
   38.7314   41.2421  -16.2414 C   0  0  2  0  0  0  0  0  0  0  0  0
   37.9191   42.0494  -15.3664 O   0  0  0  0  0  0  0  0  0  0  0  0
   36.7387   39.0373  -12.0670 C   0  0  2  0  0  0  0  0  0  0  0  0
   35.4405   38.4917  -12.3533 O   0  0  0  0  0  0  0  0  0  0  0  0
   38.3244   35.3630  -12.5307 C   0  0  0  0  0  0  0  0  0  0  0  0
   39.0357   34.4470  -13.3661 O   0  0  0  0  0  0  0  0  0  0  0  0
   36.3621   34.3891  -18.2643 C   0  0  1  0  0  0  0  0  0  0  0  0
   36.3391   34.2596  -16.8318 O   0  0  0  0  0  0  0  0  0  0  0  0
   39.9806   42.0206  -16.6620 C   0  0  0  0  0  0  0  0  0  0  0  0
   39.5946   43.2906  -17.2937 O   0  0  0  0  0  0  0  0  0  0  0  0
   36.9276   39.1719  -10.5514 C   0  0  1  0  0  0  0  0  0  0  0  0
   36.8791   37.8827   -9.9361 O   0  0  0  0  0  0  0  0  0  0  0  0
   37.5822   33.6490  -18.8138 C   0  0  0  0  0  0  0  0  0  0  0  0
   38.8034   34.2565  -18.2667 N   0  0  0  0  0  0  0  0  0  0  0  0
  1  2  1  6  0  0  0
  1  7  1  0  0  0  0
  1 30  1  0  0  0  0
  3  4  1  1  0  0  0
  3  9  1  0  0  0  0
  3 39  1  0  0  0  0
  5 10  1  0  0  0  0
  5 26  1  0  0  0  0
  5 32  1  1  0  0  0
  6 12  1  0  0  0  0
  6 36  1  0  0  0  0
  6 19  1  1  0  0  0
  7  8  1  1  0  0  0
  7 14  1  0  0  0  0
  9 16  1  0  0  0  0
 10 11  1  6  0  0  0
 10 18  1  0  0  0  0
 12 13  1  1  0  0  0
 12 20  1  0  0  0  0
 14 15  1  6  0  0  0
 14 22  1  0  0  0  0
 16 17  1  1  0  0  0
 16 24  1  0  0  0  0
 18 19  1  1  0  0  0
 18 25  1  0  0  0  0
 20 21  1  6  0  0  0
 20 27  1  0  0  0  0
 22 23  1  6  0  0  0
 22 29  1  0  0  0  0
 24  2  1  6  0  0  0
 24 31  1  0  0  0  0
 25 26  1  0  0  0  0
 25 33  1  1  0  0  0
 27 28  1  1  0  0  0
 27 35  1  0  0  0  0
 29 30  1  0  0  0  0
 29 37  1  6  0  0  0
 31 32  1  1  0  0  0
 31 39  1  0  0  0  0
 33 34  1  0  0  0  0
 35 36  1  0  0  0  0
 35 41  1  6  0  0  0
 37 38  1  0  0  0  0
 39 40  1  1  0  0  0
 41 42  1  0  0  0  0
M  END
>  <CHROM.1>
-135.16685630,-53.23999120,-167.78156404,83.26008954,-76.76688298,-61.32996230
63.65537880,125.11425919,178.46374367,36.74986702,37.91202683,-14.98298300
-0.38061412,-1.26207075,-1.37400548

>  <Name>
3c44_lig

>  <RI>
224

>  <Rbt.Current_Directory>
/home/itssahil/PROJECTS/Mol_Feturizer/New_Systems/rnas/3c44

>  <Rbt.Executable>
rbdock ($Id: //depot/dev/client3/rdock/2013.1/src/exe/rbdock.cxx#4 $)

>  <Rbt.Library>
libRbt.so (2013.1, Build901 2013/11/27)

>  <Rbt.Parameter_File>
/export/apps/rDock/src/rDock_2013.1_src/data/scripts/dock_solv.prm

>  <Rbt.Receptor>
prm/pocket_docking_8.prm

>  <SCORE>
-8.71268

>  <SCORE.INTER>
-12.7818

>  <SCORE.INTER.CONST>
1

>  <SCORE.INTER.POLAR>
-2.38641

>  <SCORE.INTER.ROT>
9

>  <SCORE.INTER.SOLV>
10.8639

>  <SCORE.INTER.VDW>
-13.7878

>  <SCORE.INTER.norm>
-0.304329

>  <SCORE.INTRA>
4.06913

>  <SCORE.INTRA.DIHEDRAL>
3.23504

>  <SCORE.INTRA.DIHEDRAL.0>
14.8538

>  <SCORE.INTRA.POLAR>
0

>  <SCORE.INTRA.POLAR.0>
0

>  <SCORE.INTRA.REPUL>
0

>  <SCORE.INTRA.REPUL.0>
0

>  <SCORE.INTRA.SOLV>
0.32824

>  <SCORE.INTRA.SOLV.lig_0>
-100.951

>  <SCORE.INTRA.VDW>
2.28749

>  <SCORE.INTRA.VDW.0>
-5.71388

>  <SCORE.INTRA.norm>
0.096884

>  <SCORE.RESTR>
0

>  <SCORE.RESTR.CAVITY>
0

>  <SCORE.RESTR.norm>
0

>  <SCORE.SYSTEM>
0

>  <SCORE.SYSTEM.CONST>
0

>  <SCORE.SYSTEM.DIHEDRAL>
0

>  <SCORE.SYSTEM.SOLV>
0

>  <SCORE.SYSTEM.norm>
0

>  <SCORE.heavy>
42

>  <SCORE.norm>
-0.207445

>  <RMSD>
8.578

$$$$
3c44_lig
 OpenBabel11021811463D
libRbt.so/2013.1/901 2013/11/27
 42 45  0  0  0  0  0  0  0  0999 V2000
   36.7824   41.9827  -12.1167 C   0  0  2  0  0  0  0  0  0  0  0  0
   37.6779   40.9597  -11.6547 O   0  0  0  0  0  0  0  0  0  0  0  0
   40.2625   41.0931   -8.4156 C   0  0  2  0  0  0  0  0  0  0  0  0
   41.0071   41.1962   -7.1512 N   0  0  0  0  0  0  0  0  0  0  0  0
   37.6217   37.7351  -10.6564 C   0  0  1  0  0  0  0  0  0  0  0  0
   35.8148   36.0961  -13.7068 C   0  0  1  0  0  0  0  0  0  0  0  0
   35.4198   41.3534  -12.4256 C   0  0  2  0  0  0  0  0  0  0  0  0
   34.9078   40.6151  -11.2621 N   0  0  0  0  0  0  0  0  0  0  0  0
   39.5263   42.4017   -8.7166 C   0  0  0  0  0  0  0  0  0  0  0  0
   37.1571   38.3151  -11.9932 C   0  0  2  0  0  0  0  0  0  0  0  0
   35.7309   38.2785  -12.0720 O   0  0  0  0  0  0  0  0  0  0  0  0
   34.9062   34.8992  -13.4074 C   0  0  2  0  0  0  0  0  0  0  0  0
   35.7007   33.6709  -13.5450 N   0  0  0  0  0  0  0  0  0  0  0  0
   35.5040   40.4034  -13.6228 C   0  0  1  0  0  0  0  0  0  0  0  0
   34.1868   39.9660  -13.9708 O   0  0  0  0  0  0  0  0  0  0  0  0
   38.9057   42.2776  -10.1122 C   0  0  2  0  0  0  0  0  0  0  0  0
   38.1367   43.4947  -10.4126 N   0  0  0  0  0  0  0  0  0  0  0  0
   37.7298   37.2642  -12.9421 C   0  0  2  0  0  0  0  0  0  0  0  0
   36.9791   36.0413  -12.8640 O   0  0  0  0  0  0  0  0  0  0  0  0
   33.7275   34.8398  -14.3878 C   0  0  1  0  0  0  0  0  0  0  0  0
   32.8061   35.9015  -14.1258 O   0  0  0  0  0  0  0  0  0  0  0  0
   36.1344   41.1253  -14.8151 C   0  0  2  0  0  0  0  0  0  0  0  0
   36.3120   40.2049  -15.8950 O   0  0  0  0  0  0  0  0  0  0  0  0
   37.9821   41.0611  -10.2525 C   0  0  2  0  0  0  0  0  0  0  0  0
   39.1054   37.0567  -12.3283 C   0  0  2  0  0  0  0  0  0  0  0  0
   38.9756   37.3191  -10.9142 O   0  0  0  0  0  0  0  0  0  0  0  0
   34.2100   34.9537  -15.8348 C   0  0  2  0  0  0  0  0  0  0  0  0
   34.9525   33.7774  -16.1684 O   0  0  0  0  0  0  0  0  0  0  0  0
   37.4888   41.7052  -14.4047 C   0  0  2  0  0  0  0  0  0  0  0  0
   37.3267   42.6087  -13.2935 O   0  0  0  0  0  0  0  0  0  0  0  0
   38.5835   39.7543   -9.7397 C   0  0  2  0  0  0  0  0  0  0  0  0
   37.5513   38.7589   -9.6487 O   0  0  0  0  0  0  0  0  0  0  0  0
   40.1034   38.0186  -12.9766 C   0  0  0  0  0  0  0  0  0  0  0  0
   41.4299   37.6327  -12.6101 O   0  0  0  0  0  0  0  0  0  0  0  0
   35.0913   36.1983  -15.9692 C   0  0  1  0  0  0  0  0  0  0  0  0
   36.2172   36.0558  -15.0852 O   0  0  0  0  0  0  0  0  0  0  0  0
   38.0571   42.4565  -15.6113 C   0  0  0  0  0  0  0  0  0  0  0  0
   39.3926   42.9829  -15.2947 O   0  0  0  0  0  0  0  0  0  0  0  0
   39.2408   39.9541   -8.3689 C   0  0  1  0  0  0  0  0  0  0  0  0
   39.8737   38.7432   -7.9490 O   0  0  0  0  0  0  0  0  0  0  0  0
   35.5992   36.3965  -17.3979 C   0  0  0  0  0  0  0  0  0  0  0  0
   36.6788   37.3936  -17.3936 N   0  0  0  0  0  0  0  0  0  0  0  0
  1  2  1  6  0  0  0
  1  7  1  0  0  0  0
  1 30  1  0  0  0  0
  3  4  1  1  0  0  0
  3  9  1  0  0  0  0
  3 39  1  0  0  0  0
  5 10  1  0  0  0  0
  5 26  1  0  0  0  0
  5 32  1  1  0  0  0
  6 12  1  0  0  0  0
  6 36  1  0  0  0  0
  6 19  1  1  0  0  0
  7  8  1  1  0  0  0
  7 14  1  0  0  0  0
  9 16  1  0  0  0  0
 10 11  1  1  0  0  0
 10 18  1  0  0  0  0
 12 13  1  6  0  0  0
 12 20  1  0  0  0  0
 14 15  1  6  0  0  0
 14 22  1  0  0  0  0
 16 17  1  1  0  0  0
 16 24  1  0  0  0  0
 18 19  1  1  0  0  0
 18 25  1  0  0  0  0
 20 21  1  1  0  0  0
 20 27  1  0  0  0  0
 22 23  1  6  0  0  0
 22 29  1  0  0  0  0
 24  2  1  6  0  0  0
 24 31  1  0  0  0  0
 25 26  1  0  0  0  0
 25 33  1  6  0  0  0
 27 28  1  1  0  0  0
 27 35  1  0  0  0  0
 29 30  1  0  0  0  0
 29 37  1  6  0  0  0
 31 32  1  1  0  0  0
 31 39  1  0  0  0  0
 33 34  1  0  0  0  0
 35 36  1  0  0  0  0
 35 41  1  6  0  0  0
 37 38  1  0  0  0  0
 39 40  1  6  0  0  0
 41 42  1  0  0  0  0
M  END
>  <CHROM.1>
-109.11913876,-74.12513056,-169.54722780,83.86170248,-72.36745143,-167.83481213
-177.29400543,107.34827029,-166.42915404,37.16642745,38.86382613,-12.67797444
0.43414687,-1.03128219,-0.30335063

>  <Name>
3c44_lig

>  <RI>
0

>  <Rbt.Current_Directory>
/home/itssahil/PROJECTS/Mol_Feturizer/New_Systems/rnas/3c44

>  <Rbt.Executable>
rbdock ($Id: //depot/dev/client3/rdock/2013.1/src/exe/rbdock.cxx#4 $)

>  <Rbt.Library>
libRbt.so (2013.1, Build901 2013/11/27)

>  <Rbt.Parameter_File>
/export/apps/rDock/src/rDock_2013.1_src/data/scripts/dock_solv.prm

>  <Rbt.Receptor>
prm/pocket_docking_7.prm

>  <SCORE>
-8.60471

>  <SCORE.INTER>
-14.0259

>  <SCORE.INTER.CONST>
1

>  <SCORE.INTER.POLAR>
-2.84134

>  <SCORE.INTER.ROT>
9

>  <SCORE.INTER.SOLV>
16.857

>  <SCORE.INTER.VDW>
-15.0985

>  <SCORE.INTER.norm>
-0.33395

>  <SCORE.INTRA>
5.42119

>  <SCORE.INTRA.DIHEDRAL>
4.26491

>  <SCORE.INTRA.DIHEDRAL.0>
14.8538

>  <SCORE.INTRA.POLAR>
0

>  <SCORE.INTRA.POLAR.0>
0

>  <SCORE.INTRA.REPUL>
0.0270117

>  <SCORE.INTRA.REPUL.0>
0

>  <SCORE.INTRA.SOLV>
1.80814

>  <SCORE.INTRA.SOLV.lig_0>
-100.951

>  <SCORE.INTRA.VDW>
2.2496

>  <SCORE.INTRA.VDW.0>
-5.71388

>  <SCORE.INTRA.norm>
0.129076

>  <SCORE.RESTR>
0

>  <SCORE.RESTR.CAVITY>
0

>  <SCORE.RESTR.norm>
0

>  <SCORE.SYSTEM>
0

>  <SCORE.SYSTEM.CONST>
0

>  <SCORE.SYSTEM.DIHEDRAL>
0

>  <SCORE.SYSTEM.SOLV>
0

>  <SCORE.SYSTEM.norm>
0

>  <SCORE.heavy>
42

>  <SCORE.norm>
-0.204874

>  <RMSD>
8.588

$$$$
3c44_lig
 OpenBabel11021811463D
libRbt.so/2013.1/901 2013/11/27
 42 45  0  0  0  0  0  0  0  0999 V2000
   40.1066   40.4225  -13.7882 C   0  0  2  0  0  0  0  0  0  0  0  0
   40.9627   39.4088  -14.3369 O   0  0  0  0  0  0  0  0  0  0  0  0
   40.0485   35.4745  -15.2726 C   0  0  2  0  0  0  0  0  0  0  0  0
   39.7172   34.0463  -15.3925 N   0  0  0  0  0  0  0  0  0  0  0  0
   36.8913   38.5106  -14.6417 C   0  0  1  0  0  0  0  0  0  0  0  0
   33.5103   36.6733  -15.1590 C   0  0  1  0  0  0  0  0  0  0  0  0
   40.7326   41.7979  -14.0421 C   0  0  2  0  0  0  0  0  0  0  0  0
   41.0164   41.9885  -15.4718 N   0  0  0  0  0  0  0  0  0  0  0  0
   41.3076   35.6668  -14.4224 C   0  0  0  0  0  0  0  0  0  0  0  0
   35.7821   38.1306  -13.6596 C   0  0  2  0  0  0  0  0  0  0  0  0
   35.6802   36.7085  -13.5646 O   0  0  0  0  0  0  0  0  0  0  0  0
   34.2597   35.3984  -15.5602 C   0  0  2  0  0  0  0  0  0  0  0  0
   34.5551   35.4698  -16.9978 N   0  0  0  0  0  0  0  0  0  0  0  0
   42.0288   41.9749  -13.2474 C   0  0  1  0  0  0  0  0  0  0  0  0
   42.4892   43.3221  -13.3908 O   0  0  0  0  0  0  0  0  0  0  0  0
   41.6803   37.1524  -14.4700 C   0  0  2  0  0  0  0  0  0  0  0  0
   42.8523   37.3876  -13.6133 N   0  0  0  0  0  0  0  0  0  0  0  0
   34.5702   38.6611  -14.4230 C   0  0  2  0  0  0  0  0  0  0  0  0
   34.2733   37.8267  -15.5547 O   0  0  0  0  0  0  0  0  0  0  0  0
   33.4112   34.1490  -15.2898 C   0  0  1  0  0  0  0  0  0  0  0  0
   33.2970   33.9180  -13.8832 O   0  0  0  0  0  0  0  0  0  0  0  0
   41.7759   41.6759  -11.7685 C   0  0  2  0  0  0  0  0  0  0  0  0
   43.0101   41.7349  -11.0486 O   0  0  0  0  0  0  0  0  0  0  0  0
   40.5409   38.0722  -14.0136 C   0  0  2  0  0  0  0  0  0  0  0  0
   35.1099   39.9985  -14.9048 C   0  0  2  0  0  0  0  0  0  0  0  0
   36.5366   39.8407  -15.0630 O   0  0  0  0  0  0  0  0  0  0  0  0
   32.0076   34.2999  -15.8785 C   0  0  2  0  0  0  0  0  0  0  0  0
   32.1035   34.3085  -17.3057 O   0  0  0  0  0  0  0  0  0  0  0  0
   41.1624   40.2822  -11.6257 C   0  0  2  0  0  0  0  0  0  0  0  0
   39.9347   40.2001  -12.3761 O   0  0  0  0  0  0  0  0  0  0  0  0
   39.1910   37.7663  -14.6592 C   0  0  2  0  0  0  0  0  0  0  0  0
   38.1568   38.4771  -13.9590 O   0  0  0  0  0  0  0  0  0  0  0  0
   34.7876   41.0804  -13.8719 C   0  0  0  0  0  0  0  0  0  0  0  0
   35.5644   40.8488  -12.6946 O   0  0  0  0  0  0  0  0  0  0  0  0
   31.3950   35.6099  -15.3759 C   0  0  1  0  0  0  0  0  0  0  0  0
   32.2299   36.6981  -15.8097 O   0  0  0  0  0  0  0  0  0  0  0  0
   40.8836   40.0479  -10.1388 C   0  0  0  0  0  0  0  0  0  0  0  0
   40.1121   38.8095   -9.9592 O   0  0  0  0  0  0  0  0  0  0  0  0
   38.9003   36.2610  -14.6352 C   0  0  1  0  0  0  0  0  0  0  0  0
   37.6770   35.9882  -15.3222 O   0  0  0  0  0  0  0  0  0  0  0  0
   29.9766   35.8261  -15.9047 C   0  0  0  0  0  0  0  0  0  0  0  0
   29.5256   37.1768  -15.5416 N   0  0  0  0  0  0  0  0  0  0  0  0
  1  2  1  1  0  0  0
  1  7  1  0  0  0  0
  1 30  1  0  0  0  0
  3  4  1  1  0  0  0
  3  9  1  0  0  0  0
  3 39  1  0  0  0  0
  5 10  1  0  0  0  0
  5 26  1  0  0  0  0
  5 32  1  1  0  0  0
  6 12  1  0  0  0  0
  6 36  1  0  0  0  0
  6 19  1  6  0  0  0
  7  8  1  6  0  0  0
  7 14  1  0  0  0  0
  9 16  1  0  0  0  0
 10 11  1  6  0  0  0
 10 18  1  0  0  0  0
 12 13  1  6  0  0  0
 12 20  1  0  0  0  0
 14 15  1  1  0  0  0
 14 22  1  0  0  0  0
 16 17  1  1  0  0  0
 16 24  1  0  0  0  0
 18 19  1  6  0  0  0
 18 25  1  0  0  0  0
 20 21  1  1  0  0  0
 20 27  1  0  0  0  0
 22 23  1  1  0  0  0
 22 29  1  0  0  0  0
 24  2  1  6  0  0  0
 24 31  1  0  0  0  0
 25 26  1  0  0  0  0
 25 33  1  1  0  0  0
 27 28  1  6  0  0  0
 27 35  1  0  0  0  0
 29 30  1  0  0  0  0
 29 37  1  1  0  0  0
 31 32  1  1  0  0  0
 31 39  1  0  0  0  0
 33 34  1  0  0  0  0
 35 36  1  0  0  0  0
 35 41  1  6  0  0  0
 37 38  1  0  0  0  0
 39 40  1  6  0  0  0
 41 42  1  0  0  0  0
M  END
>  <CHROM.1>
173.15305845,132.07655694,-122.13980725,81.91231027,-170.74955208,68.97939394
171.62857214,166.88731278,-172.11205092,37.36600891,38.09229661,-14.21887634
0.52568164,-0.14347682,0.30014428

>  <Name>
3c44_lig

>  <RI>
0

>  <Rbt.Current_Directory>
/home/itssahil/PROJECTS/Mol_Feturizer/New_Systems/rnas/3c44

>  <Rbt.Executable>
rbdock ($Id: //depot/dev/client3/rdock/2013.1/src/exe/rbdock.cxx#4 $)

>  <Rbt.Library>
libRbt.so (2013.1, Build901 2013/11/27)

>  <Rbt.Parameter_File>
/export/apps/rDock/src/rDock_2013.1_src/data/scripts/dock_solv.prm

>  <Rbt.Receptor>
prm/pocket_docking_4.prm

>  <SCORE>
-3.66663

>  <SCORE.INTER>
-6.5874

>  <SCORE.INTER.CONST>
1

>  <SCORE.INTER.POLAR>
0

>  <SCORE.INTER.ROT>
9

>  <SCORE.INTER.SOLV>
17.6375

>  <SCORE.INTER.VDW>
-19.8708

>  <SCORE.INTER.norm>
-0.156843

>  <SCORE.INTRA>
2.92078

>  <SCORE.INTRA.DIHEDRAL>
3.28581

>  <SCORE.INTRA.DIHEDRAL.0>
14.8538

>  <SCORE.INTRA.POLAR>
0

>  <SCORE.INTRA.POLAR.0>
0

>  <SCORE.INTRA.REPUL>
0

>  <SCORE.INTRA.REPUL.0>
0

>  <SCORE.INTRA.SOLV>
-3.00147

>  <SCORE.INTRA.SOLV.lig_0>
-100.951

>  <SCORE.INTRA.VDW>
2.77861

>  <SCORE.INTRA.VDW.0>
-5.71388

>  <SCORE.INTRA.norm>
0.0695423

>  <SCORE.RESTR>
0

>  <SCORE.RESTR.CAVITY>
0

>  <SCORE.RESTR.norm>
0

>  <SCORE.SYSTEM>
0

>  <SCORE.SYSTEM.CONST>
0

>  <SCORE.SYSTEM.DIHEDRAL>
0

>  <SCORE.SYSTEM.SOLV>
0

>  <SCORE.SYSTEM.norm>
0

>  <SCORE.heavy>
42

>  <SCORE.norm>
-0.0873006

>  <RMSD>
8.589

$$$$
3c44_lig
 OpenBabel11021811463D
libRbt.so/2013.1/901 2013/11/27
 42 45  0  0  0  0  0  0  0  0999 V2000
   39.1771   42.2911  -11.7459 C   0  0  2  0  0  0  0  0  0  0  0  0
   38.8860   42.2322  -13.1507 O   0  0  0  0  0  0  0  0  0  0  0  0
   40.2963   44.7156  -16.1563 C   0  0  2  0  0  0  0  0  0  0  0  0
   40.9925   45.5483  -17.1491 N   0  0  0  0  0  0  0  0  0  0  0  0
   39.0832   40.0453  -15.2883 C   0  0  1  0  0  0  0  0  0  0  0  0
   35.3466   38.0408  -14.9939 C   0  0  1  0  0  0  0  0  0  0  0  0
   39.7572   40.9456  -11.2977 C   0  0  2  0  0  0  0  0  0  0  0  0
   40.9208   40.5776  -12.1173 N   0  0  0  0  0  0  0  0  0  0  0  0
   40.7054   45.1143  -14.7354 C   0  0  0  0  0  0  0  0  0  0  0  0
   37.9573   40.2669  -16.2994 C   0  0  2  0  0  0  0  0  0  0  0  0
   37.1082   41.3287  -15.8597 O   0  0  0  0  0  0  0  0  0  0  0  0
   34.6379   37.9794  -13.6368 C   0  0  2  0  0  0  0  0  0  0  0  0
   35.6201   37.5754  -12.6212 N   0  0  0  0  0  0  0  0  0  0  0  0
   38.7114   39.8313  -11.3860 C   0  0  1  0  0  0  0  0  0  0  0  0
   39.2472   38.6355  -10.8114 O   0  0  0  0  0  0  0  0  0  0  0  0
   39.8323   44.3201  -13.7583 C   0  0  2  0  0  0  0  0  0  0  0  0
   40.2387   44.6311  -12.3795 N   0  0  0  0  0  0  0  0  0  0  0  0
   37.2103   38.9436  -16.1463 C   0  0  2  0  0  0  0  0  0  0  0  0
   36.4958   38.9008  -14.9002 O   0  0  0  0  0  0  0  0  0  0  0  0
   33.4944   36.9566  -13.6549 C   0  0  1  0  0  0  0  0  0  0  0  0
   32.4124   37.4319  -14.4601 O   0  0  0  0  0  0  0  0  0  0  0  0
   37.4492   40.2426  -10.6257 C   0  0  2  0  0  0  0  0  0  0  0  0
   36.4365   39.2486  -10.8026 O   0  0  0  0  0  0  0  0  0  0  0  0
   39.9207   42.8036  -13.9702 C   0  0  2  0  0  0  0  0  0  0  0  0
   38.3776   37.9705  -16.0969 C   0  0  2  0  0  0  0  0  0  0  0  0
   39.4934   38.6854  -15.5232 O   0  0  0  0  0  0  0  0  0  0  0  0
   33.9677   35.6127  -14.2114 C   0  0  2  0  0  0  0  0  0  0  0  0
   34.8921   35.0301  -13.2884 O   0  0  0  0  0  0  0  0  0  0  0  0
   36.9486   41.5877  -11.1545 C   0  0  2  0  0  0  0  0  0  0  0  0
   37.9742   42.5903  -11.0133 O   0  0  0  0  0  0  0  0  0  0  0  0
   39.7570   42.3627  -15.4233 C   0  0  2  0  0  0  0  0  0  0  0  0
   40.1416   40.9839  -15.5484 O   0  0  0  0  0  0  0  0  0  0  0  0
   38.7018   37.4906  -17.5133 C   0  0  0  0  0  0  0  0  0  0  0  0
   39.7488   36.5198  -17.4498 O   0  0  0  0  0  0  0  0  0  0  0  0
   34.6399   35.8443  -15.5672 C   0  0  1  0  0  0  0  0  0  0  0  0
   35.7647   36.7199  -15.3734 O   0  0  0  0  0  0  0  0  0  0  0  0
   35.7170   41.9797  -10.3341 C   0  0  0  0  0  0  0  0  0  0  0  0
   35.0124   43.0946  -10.9833 O   0  0  0  0  0  0  0  0  0  0  0  0
   40.6073   43.2305  -16.3587 C   0  0  1  0  0  0  0  0  0  0  0  0
   40.3711   42.8599  -17.7188 O   0  0  0  0  0  0  0  0  0  0  0  0
   35.1246   34.5409  -16.2032 C   0  0  0  0  0  0  0  0  0  0  0  0
   35.6456   34.8232  -17.5480 N   0  0  0  0  0  0  0  0  0  0  0  0
  1  2  1  6  0  0  0
  1  7  1  0  0  0  0
  1 30  1  0  0  0  0
  3  4  1  6  0  0  0
  3  9  1  0  0  0  0
  3 39  1  0  0  0  0
  5 10  1  0  0  0  0
  5 26  1  0  0  0  0
  5 32  1  6  0  0  0
  6 12  1  0  0  0  0
  6 36  1  0  0  0  0
  6 19  1  1  0  0  0
  7  8  1  6  0  0  0
  7 14  1  0  0  0  0
  9 16  1  0  0  0  0
 10 11  1  1  0  0  0
 10 18  1  0  0  0  0
 12 13  1  1  0  0  0
 12 20  1  0  0  0  0
 14 15  1  1  0  0  0
 14 22  1  0  0  0  0
 16 17  1  1  0  0  0
 16 24  1  0  0  0  0
 18 19  1  1  0  0  0
 18 25  1  0  0  0  0
 20 21  1  6  0  0  0
 20 27  1  0  0  0  0
 22 23  1  6  0  0  0
 22 29  1  0  0  0  0
 24  2  1  1  0  0  0
 24 31  1  0  0  0  0
 25 26  1  0  0  0  0
 25 33  1  6  0  0  0
 27 28  1  1  0  0  0
 27 35  1  0  0  0  0
 29 30  1  0  0  0  0
 29 37  1  1  0  0  0
 31 32  1  1  0  0  0
 31 39  1  0  0  0  0
 33 34  1  0  0  0  0
 35 36  1  0  0  0  0
 35 41  1  1  0  0  0
 37 38  1  0  0  0  0
 39 40  1  6  0  0  0
 41 42  1  0  0  0  0
M  END
>  <CHROM.1>
-97.53715130,61.22960574,178.00393784,152.62151900,-72.08908204,-176.74108181
-167.10007567,87.22312144,174.90186210,37.71916568,39.98673344,-14.17021099
0.57642726,0.84648559,0.95664878

>  <Name>
3c44_lig

>  <RI>
0

>  <Rbt.Current_Directory>
/home/itssahil/PROJECTS/Mol_Feturizer/New_Systems/rnas/3c44

>  <Rbt.Executable>
rbdock ($Id: //depot/dev/client3/rdock/2013.1/src/exe/rbdock.cxx#4 $)

>  <Rbt.Library>
libRbt.so (2013.1, Build901 2013/11/27)

>  <Rbt.Parameter_File>
/export/apps/rDock/src/rDock_2013.1_src/data/scripts/dock_solv.prm

>  <Rbt.Receptor>
prm/pocket_docking_4.prm

>  <SCORE>
-1.47978

>  <SCORE.INTER>
-2.92868

>  <SCORE.INTER.CONST>
1

>  <SCORE.INTER.POLAR>
-0.98257

>  <SCORE.INTER.ROT>
9

>  <SCORE.INTER.SOLV>
10.5071

>  <SCORE.INTER.VDW>
-11.7796

>  <SCORE.INTER.norm>
-0.0697304

>  <SCORE.INTRA>
1.43984

>  <SCORE.INTRA.DIHEDRAL>
-2.04649

>  <SCORE.INTRA.DIHEDRAL.0>
14.8538

>  <SCORE.INTRA.POLAR>
0

>  <SCORE.INTRA.POLAR.0>
0

>  <SCORE.INTRA.REPUL>
0.0223285

>  <SCORE.INTRA.REPUL.0>
0

>  <SCORE.INTRA.SOLV>
0.93029

>  <SCORE.INTRA.SOLV.lig_0>
-100.951

>  <SCORE.INTRA.VDW>
1.8863

>  <SCORE.INTRA.VDW.0>
-5.71388

>  <SCORE.INTRA.norm>
0.034282

>  <SCORE.RESTR>
0.00905259

>  <SCORE.RESTR.CAVITY>
0.00905259

>  <SCORE.RESTR.norm>
0.000215538

>  <SCORE.SYSTEM>
0

>  <SCORE.SYSTEM.CONST>
0

>  <SCORE.SYSTEM.DIHEDRAL>
0

>  <SCORE.SYSTEM.SOLV>
0

>  <SCORE.SYSTEM.norm>
0

>  <SCORE.heavy>
42

>  <SCORE.norm>
-0.0352329

>  <RMSD>
8.593

$$$$
3c44_lig
 OpenBabel11021811463D
libRbt.so/2013.1/901 2013/11/27
 42 45  0  0  0  0  0  0  0  0999 V2000
   39.8858   40.4744  -14.2382 C   0  0  2  0  0  0  0  0  0  0  0  0
   40.7289   39.4359  -14.7601 O   0  0  0  0  0  0  0  0  0  0  0  0
   40.2515   35.3176  -14.7189 C   0  0  2  0  0  0  0  0  0  0  0  0
   40.1062   33.8716  -14.4915 N   0  0  0  0  0  0  0  0  0  0  0  0
   36.8170   38.0939  -14.2774 C   0  0  1  0  0  0  0  0  0  0  0  0
   32.7495   37.7877  -15.1762 C   0  0  1  0  0  0  0  0  0  0  0  0
   40.0435   41.7295  -15.1029 C   0  0  2  0  0  0  0  0  0  0  0  0
   39.7842   41.4269  -16.5179 N   0  0  0  0  0  0  0  0  0  0  0  0
   41.5691   35.8272  -14.1278 C   0  0  0  0  0  0  0  0  0  0  0  0
   35.8800   39.1580  -13.7041 C   0  0  2  0  0  0  0  0  0  0  0  0
   35.4420   38.7714  -12.4001 O   0  0  0  0  0  0  0  0  0  0  0  0
   32.0306   36.4545  -14.9449 C   0  0  2  0  0  0  0  0  0  0  0  0
   32.9607   35.3655  -15.2738 N   0  0  0  0  0  0  0  0  0  0  0  0
   41.4470   42.3255  -14.9683 C   0  0  1  0  0  0  0  0  0  0  0  0
   41.4969   43.5751  -15.6635 O   0  0  0  0  0  0  0  0  0  0  0  0
   41.7260   37.2961  -14.5351 C   0  0  2  0  0  0  0  0  0  0  0  0
   42.9530   37.8394  -13.9332 N   0  0  0  0  0  0  0  0  0  0  0  0
   34.7103   39.0214  -14.6768 C   0  0  2  0  0  0  0  0  0  0  0  0
   33.9797   37.8086  -14.4311 O   0  0  0  0  0  0  0  0  0  0  0  0
   30.7890   36.3326  -15.8381 C   0  0  1  0  0  0  0  0  0  0  0  0
   29.7655   37.2277  -15.3950 O   0  0  0  0  0  0  0  0  0  0  0  0
   41.7767   42.5488  -13.4913 C   0  0  2  0  0  0  0  0  0  0  0  0
   43.1272   43.0015  -13.3636 O   0  0  0  0  0  0  0  0  0  0  0  0
   40.5378   38.1675  -14.1092 C   0  0  2  0  0  0  0  0  0  0  0  0
   35.4586   38.9060  -15.9955 C   0  0  2  0  0  0  0  0  0  0  0  0
   36.7319   38.2918  -15.7008 O   0  0  0  0  0  0  0  0  0  0  0  0
   31.1262   36.6542  -17.2949 C   0  0  2  0  0  0  0  0  0  0  0  0
   31.9813   35.6289  -17.8085 O   0  0  0  0  0  0  0  0  0  0  0  0
   41.5980   41.2384  -12.7231 C   0  0  2  0  0  0  0  0  0  0  0  0
   40.2489   40.7540  -12.8732 O   0  0  0  0  0  0  0  0  0  0  0  0
   39.1722   37.5837  -14.4654 C   0  0  2  0  0  0  0  0  0  0  0  0
   38.1467   38.3180  -13.7770 O   0  0  0  0  0  0  0  0  0  0  0  0
   35.6470   40.2997  -16.5985 C   0  0  0  0  0  0  0  0  0  0  0  0
   34.3641   40.8716  -16.8634 O   0  0  0  0  0  0  0  0  0  0  0  0
   31.8262   38.0144  -17.3553 C   0  0  1  0  0  0  0  0  0  0  0  0
   33.0332   37.9395  -16.5762 O   0  0  0  0  0  0  0  0  0  0  0  0
   41.8912   41.5215  -11.2475 C   0  0  0  0  0  0  0  0  0  0  0  0
   41.7269   40.2938  -10.4559 O   0  0  0  0  0  0  0  0  0  0  0  0
   39.0956   36.0993  -14.0893 C   0  0  1  0  0  0  0  0  0  0  0  0
   37.8446   35.5518  -14.5116 O   0  0  0  0  0  0  0  0  0  0  0  0
   32.1794   38.4207  -18.7866 C   0  0  0  0  0  0  0  0  0  0  0  0
   33.1666   37.4763  -19.3280 N   0  0  0  0  0  0  0  0  0  0  0  0
  1  2  1  6  0  0  0
  1  7  1  0  0  0  0
  1 30  1  0  0  0  0
  3  4  1  1  0  0  0
  3  9  1  0  0  0  0
  3 39  1  0  0  0  0
  5 10  1  0  0  0  0
  5 26  1  0  0  0  0
  5 32  1  1  0  0  0
  6 12  1  0  0  0  0
  6 36  1  0  0  0  0
  6 19  1  1  0  0  0
  7  8  1  6  0  0  0
  7 14  1  0  0  0  0
  9 16  1  0  0  0  0
 10 11  1  1  0  0  0
 10 18  1  0  0  0  0
 12 13  1  6  0  0  0
 12 20  1  0  0  0  0
 14 15  1  6  0  0  0
 14 22  1  0  0  0  0
 16 17  1  1  0  0  0
 16 24  1  0  0  0  0
 18 19  1  1  0  0  0
 18 25  1  0  0  0  0
 20 21  1  1  0  0  0
 20 27  1  0  0  0  0
 22 23  1  6  0  0  0
 22 29  1  0  0  0  0
 24  2  1  6  0  0  0
 24 31  1  0  0  0  0
 25 26  1  0  0  0  0
 25 33  1  1  0  0  0
 27 28  1  1  0  0  0
 27 35  1  0  0  0  0
 29 30  1  0  0  0  0
 29 37  1  1  0  0  0
 31 32  1  1  0  0  0
 31 39  1  0  0  0  0
 33 34  1  0  0  0  0
 35 36  1  0  0  0  0
 35 41  1  6  0  0  0
 37 38  1  0  0  0  0
 39 40  1  6  0  0  0
 41 42  1  0  0  0  0
M  END
>  <CHROM.1>
-173.27739605,-166.62682964,177.24070282,169.77170648,-166.39589875,-61.85571644
179.67776982,165.14202232,-64.67208684,37.27222790,38.65963757,-14.90745729
0.27657434,-0.33981485,-0.13027875

>  <Name>
3c44_lig

>  <RI>
0

>  <Rbt.Current_Directory>
/home/itssahil/PROJECTS/Mol_Feturizer/New_Systems/rnas/3c44

>  <Rbt.Executable>
rbdock ($Id: //depot/dev/client3/rdock/2013.1/src/exe/rbdock.cxx#4 $)

>  <Rbt.Library>
libRbt.so (2013.1, Build901 2013/11/27)

>  <Rbt.Parameter_File>
/export/apps/rDock/src/rDock_2013.1_src/data/scripts/dock_solv.prm

>  <Rbt.Receptor>
prm/pocket_docking_5.prm

>  <SCORE>
-17.0325

>  <SCORE.INTER>
-13.1421

>  <SCORE.INTER.CONST>
1

>  <SCORE.INTER.POLAR>
-1.50959

>  <SCORE.INTER.ROT>
9

>  <SCORE.INTER.SOLV>
18.5638

>  <SCORE.INTER.VDW>
-19.5174

>  <SCORE.INTER.norm>
-0.312907

>  <SCORE.INTRA>
-3.8945

>  <SCORE.INTRA.DIHEDRAL>
-10.8175

>  <SCORE.INTRA.DIHEDRAL.0>
14.8538

>  <SCORE.INTRA.POLAR>
0

>  <SCORE.INTRA.POLAR.0>
0

>  <SCORE.INTRA.REPUL>
0

>  <SCORE.INTRA.REPUL.0>
0

>  <SCORE.INTRA.SOLV>
-2.27735

>  <SCORE.INTRA.SOLV.lig_0>
-100.951

>  <SCORE.INTRA.VDW>
2.65293

>  <SCORE.INTRA.VDW.0>
-5.71388

>  <SCORE.INTRA.norm>
-0.0927261

>  <SCORE.RESTR>
0.00408573

>  <SCORE.RESTR.CAVITY>
0.00408573

>  <SCORE.RESTR.norm>
9.72793e-05

>  <SCORE.SYSTEM>
0

>  <SCORE.SYSTEM.CONST>
0

>  <SCORE.SYSTEM.DIHEDRAL>
0

>  <SCORE.SYSTEM.SOLV>
0

>  <SCORE.SYSTEM.norm>
0

>  <SCORE.heavy>
42

>  <SCORE.norm>
-0.405536

>  <RMSD>
8.616

$$$$
3c44_lig
 OpenBabel11021811463D
libRbt.so/2013.1/901 2013/11/27
 42 45  0  0  0  0  0  0  0  0999 V2000
   40.0250   41.3024  -11.0294 C   0  0  2  0  0  0  0  0  0  0  0  0
   39.4969   40.1004  -11.6108 O   0  0  0  0  0  0  0  0  0  0  0  0
   40.6180   41.6094  -15.3062 C   0  0  2  0  0  0  0  0  0  0  0  0
   40.9270   41.9673  -16.6991 N   0  0  0  0  0  0  0  0  0  0  0  0
   36.8243   40.0110  -13.8755 C   0  0  1  0  0  0  0  0  0  0  0  0
   34.4822   36.5819  -14.7031 C   0  0  1  0  0  0  0  0  0  0  0  0
   40.7063   40.9586   -9.7006 C   0  0  2  0  0  0  0  0  0  0  0  0
   41.7193   39.9098   -9.8872 N   0  0  0  0  0  0  0  0  0  0  0  0
   41.1932   40.2324  -14.9625 C   0  0  0  0  0  0  0  0  0  0  0  0
   35.3119   40.0208  -13.6484 C   0  0  2  0  0  0  0  0  0  0  0  0
   35.0156   39.6015  -12.3150 O   0  0  0  0  0  0  0  0  0  0  0  0
   34.7878   35.2457  -14.0182 C   0  0  2  0  0  0  0  0  0  0  0  0
   36.2381   35.0174  -14.0785 N   0  0  0  0  0  0  0  0  0  0  0  0
   39.6883   40.4903   -8.6578 C   0  0  1  0  0  0  0  0  0  0  0  0
   40.3443   40.3343   -7.3958 O   0  0  0  0  0  0  0  0  0  0  0  0
   40.9716   39.9948  -13.4650 C   0  0  2  0  0  0  0  0  0  0  0  0
   41.4572   38.6532  -13.1083 N   0  0  0  0  0  0  0  0  0  0  0  0
   34.8997   38.9131  -14.6159 C   0  0  2  0  0  0  0  0  0  0  0  0
   35.2753   37.6230  -14.1063 O   0  0  0  0  0  0  0  0  0  0  0  0
   34.0736   34.0856  -14.7239 C   0  0  1  0  0  0  0  0  0  0  0  0
   32.6645   34.1497  -14.4885 O   0  0  0  0  0  0  0  0  0  0  0  0
   38.5669   41.5225   -8.5269 C   0  0  2  0  0  0  0  0  0  0  0  0
   37.5633   41.0311   -7.6346 O   0  0  0  0  0  0  0  0  0  0  0  0
   39.5002   40.1155  -13.0491 C   0  0  2  0  0  0  0  0  0  0  0  0
   35.7663   39.2575  -15.8169 C   0  0  2  0  0  0  0  0  0  0  0  0
   36.9567   39.8941  -15.3042 O   0  0  0  0  0  0  0  0  0  0  0  0
   34.3220   34.1235  -16.2327 C   0  0  2  0  0  0  0  0  0  0  0  0
   35.7014   33.8376  -16.4812 O   0  0  0  0  0  0  0  0  0  0  0  0
   37.9499   41.7853   -9.9015 C   0  0  2  0  0  0  0  0  0  0  0  0
   38.9599   42.2483  -10.8195 O   0  0  0  0  0  0  0  0  0  0  0  0
   38.8012   41.3685  -13.5726 C   0  0  2  0  0  0  0  0  0  0  0  0
   37.3835   41.2390  -13.3774 O   0  0  0  0  0  0  0  0  0  0  0  0
   34.9974   40.1976  -16.7477 C   0  0  0  0  0  0  0  0  0  0  0  0
   35.7756   40.4307  -17.9236 O   0  0  0  0  0  0  0  0  0  0  0  0
   33.9603   35.5138  -16.7620 C   0  0  1  0  0  0  0  0  0  0  0  0
   34.7939   36.4827  -16.1018 O   0  0  0  0  0  0  0  0  0  0  0  0
   36.8696   42.8559   -9.7285 C   0  0  0  0  0  0  0  0  0  0  0  0
   36.0874   42.9880  -10.9662 O   0  0  0  0  0  0  0  0  0  0  0  0
   39.1074   41.5866  -15.0590 C   0  0  1  0  0  0  0  0  0  0  0  0
   38.5180   42.8098  -15.5054 O   0  0  0  0  0  0  0  0  0  0  0  0
   34.1614   35.6281  -18.2736 C   0  0  0  0  0  0  0  0  0  0  0  0
   35.5920   35.4955  -18.5826 N   0  0  0  0  0  0  0  0  0  0  0  0
  1  2  1  1  0  0  0
  1  7  1  0  0  0  0
  1 30  1  0  0  0  0
  3  4  1  6  0  0  0
  3  9  1  0  0  0  0
  3 39  1  0  0  0  0
  5 10  1  0  0  0  0
  5 26  1  0  0  0  0
  5 32  1  6  0  0  0
  6 12  1  0  0  0  0
  6 36  1  0  0  0  0
  6 19  1  1  0  0  0
  7  8  1  6  0  0  0
  7 14  1  0  0  0  0
  9 16  1  0  0  0  0
 10 11  1  1  0  0  0
 10 18  1  0  0  0  0
 12 13  1  6  0  0  0
 12 20  1  0  0  0  0
 14 15  1  1  0  0  0
 14 22  1  0  0  0  0
 16 17  1  6  0  0  0
 16 24  1  0  0  0  0
 18 19  1  1  0  0  0
 18 25  1  0  0  0  0
 20 21  1  6  0  0  0
 20 27  1  0  0  0  0
 22 23  1  1  0  0  0
 22 29  1  0  0  0  0
 24  2  1  1  0  0  0
 24 31  1  0  0  0  0
 25 26  1  0  0  0  0
 25 33  1  6  0  0  0
 27 28  1  1  0  0  0
 27 35  1  0  0  0  0
 29 30  1  0  0  0  0
 29 37  1  1  0  0  0
 31 32  1  6  0  0  0
 31 39  1  0  0  0  0
 33 34  1  0  0  0  0
 35 36  1  0  0  0  0
 35 41  1  6  0  0  0
 37 38  1  0  0  0  0
 39 40  1  1  0  0  0
 41 42  1  0  0  0  0
M  END
>  <CHROM.1>
-148.38056375,-178.12158965,-173.18367753,158.00960454,71.20036167,-175.41506837
-170.46545965,-50.99565670,-65.39872807,37.30571830,39.23291258,-13.53128721
-0.65788879,-0.85303638,-1.57233397

>  <Name>
3c44_lig

>  <RI>
0

>  <Rbt.Current_Directory>
/home/itssahil/PROJECTS/Mol_Feturizer/New_Systems/rnas/3c44

>  <Rbt.Executable>
rbdock ($Id: //depot/dev/client3/rdock/2013.1/src/exe/rbdock.cxx#4 $)

>  <Rbt.Library>
libRbt.so (2013.1, Build901 2013/11/27)

>  <Rbt.Parameter_File>
/export/apps/rDock/src/rDock_2013.1_src/data/scripts/dock_solv.prm

>  <Rbt.Receptor>
prm/pocket_docking_6.prm

>  <SCORE>
-7.15757

>  <SCORE.INTER>
-6.3187

>  <SCORE.INTER.CONST>
1

>  <SCORE.INTER.POLAR>
-1.50959

>  <SCORE.INTER.ROT>
9

>  <SCORE.INTER.SOLV>
12.0985

>  <SCORE.INTER.VDW>
-12.8133

>  <SCORE.INTER.norm>
-0.150445

>  <SCORE.INTRA>
-0.843076

>  <SCORE.INTRA.DIHEDRAL>
-6.77381

>  <SCORE.INTRA.DIHEDRAL.0>
14.8538

>  <SCORE.INTRA.POLAR>
0

>  <SCORE.INTRA.POLAR.0>
0

>  <SCORE.INTRA.REPUL>
0

>  <SCORE.INTRA.REPUL.0>
0

>  <SCORE.INTRA.SOLV>
-1.29834

>  <SCORE.INTRA.SOLV.lig_0>
-100.951

>  <SCORE.INTRA.VDW>
3.193

>  <SCORE.INTRA.VDW.0>
-5.71388

>  <SCORE.INTRA.norm>
-0.0200732

>  <SCORE.RESTR>
0.00420514

>  <SCORE.RESTR.CAVITY>
0.00420514

>  <SCORE.RESTR.norm>
0.000100122

>  <SCORE.SYSTEM>
0

>  <SCORE.SYSTEM.CONST>
0

>  <SCORE.SYSTEM.DIHEDRAL>
0

>  <SCORE.SYSTEM.SOLV>
0

>  <SCORE.SYSTEM.norm>
0

>  <SCORE.heavy>
42

>  <SCORE.norm>
-0.170418

>  <RMSD>
8.633

$$$$
3c44_lig
 OpenBabel11021811463D
libRbt.so/2013.1/901 2013/11/27
 42 45  0  0  0  0  0  0  0  0999 V2000
   39.7096   39.8620   -8.5482 C   0  0  2  0  0  0  0  0  0  0  0  0
   38.7100   40.6857   -9.1680 O   0  0  0  0  0  0  0  0  0  0  0  0
   38.5580   43.6329  -12.0801 C   0  0  2  0  0  0  0  0  0  0  0  0
   38.6957   44.6047  -13.1758 N   0  0  0  0  0  0  0  0  0  0  0  0
   37.0403   39.5448  -12.8281 C   0  0  1  0  0  0  0  0  0  0  0  0
   35.0552   38.4766  -16.4109 C   0  0  1  0  0  0  0  0  0  0  0  0
   39.0191   38.7428   -7.7617 C   0  0  2  0  0  0  0  0  0  0  0  0
   38.0974   37.9886   -8.6234 N   0  0  0  0  0  0  0  0  0  0  0  0
   39.7599   43.7121  -11.1344 C   0  0  0  0  0  0  0  0  0  0  0  0
   37.4985   38.5559  -13.9010 C   0  0  2  0  0  0  0  0  0  0  0  0
   38.1026   39.2598  -14.9879 O   0  0  0  0  0  0  0  0  0  0  0  0
   36.1443   38.7903  -17.4420 C   0  0  2  0  0  0  0  0  0  0  0  0
   36.3884   40.2392  -17.4291 N   0  0  0  0  0  0  0  0  0  0  0  0
   38.2425   39.3000   -6.5661 C   0  0  1  0  0  0  0  0  0  0  0  0
   37.7503   38.2132   -5.7761 O   0  0  0  0  0  0  0  0  0  0  0  0
   39.4770   42.7918   -9.9423 C   0  0  2  0  0  0  0  0  0  0  0  0
   40.6383   42.7940   -9.0398 N   0  0  0  0  0  0  0  0  0  0  0  0
   36.1414   38.0215  -14.3543 C   0  0  2  0  0  0  0  0  0  0  0  0
   35.4369   39.0057  -15.1290 O   0  0  0  0  0  0  0  0  0  0  0  0
   35.7078   38.3736  -18.8527 C   0  0  1  0  0  0  0  0  0  0  0  0
   35.6838   36.9484  -18.9672 O   0  0  0  0  0  0  0  0  0  0  0  0
   39.1612   40.1768   -5.7132 C   0  0  2  0  0  0  0  0  0  0  0  0
   38.4060   40.7828   -4.6609 O   0  0  0  0  0  0  0  0  0  0  0  0
   39.1756   41.3465  -10.3578 C   0  0  2  0  0  0  0  0  0  0  0  0
   35.4515   37.8423  -13.0112 C   0  0  2  0  0  0  0  0  0  0  0  0
   36.0112   38.8303  -12.1190 O   0  0  0  0  0  0  0  0  0  0  0  0
   34.3158   38.9165  -19.1801 C   0  0  2  0  0  0  0  0  0  0  0  0
   34.3883   40.3413  -19.2845 O   0  0  0  0  0  0  0  0  0  0  0  0
   39.7891   41.2630   -6.5881 C   0  0  2  0  0  0  0  0  0  0  0  0
   40.5246   40.6640   -7.6731 O   0  0  0  0  0  0  0  0  0  0  0  0
   38.1463   41.2177  -11.4788 C   0  0  2  0  0  0  0  0  0  0  0  0
   38.1560   39.8716  -11.9812 O   0  0  0  0  0  0  0  0  0  0  0  0
   35.7063   36.4256  -12.4920 C   0  0  0  0  0  0  0  0  0  0  0  0
   35.1376   35.4840  -13.4047 O   0  0  0  0  0  0  0  0  0  0  0  0
   33.3482   38.5104  -18.0654 C   0  0  1  0  0  0  0  0  0  0  0  0
   33.8175   39.0746  -16.8281 O   0  0  0  0  0  0  0  0  0  0  0  0
   40.7337   42.0821   -5.7048 C   0  0  0  0  0  0  0  0  0  0  0  0
   41.3456   43.1647   -6.4888 O   0  0  0  0  0  0  0  0  0  0  0  0
   38.4468   42.2028  -12.6147 C   0  0  1  0  0  0  0  0  0  0  0  0
   37.4235   42.1285  -13.6099 O   0  0  0  0  0  0  0  0  0  0  0  0
   31.9234   38.9990  -18.3292 C   0  0  0  0  0  0  0  0  0  0  0  0
   31.0177   38.4098  -17.3331 N   0  0  0  0  0  0  0  0  0  0  0  0
  1  2  1  1  0  0  0
  1  7  1  0  0  0  0
  1 30  1  0  0  0  0
  3  4  1  6  0  0  0
  3  9  1  0  0  0  0
  3 39  1  0  0  0  0
  5 10  1  0  0  0  0
  5 26  1  0  0  0  0
  5 32  1  1  0  0  0
  6 12  1  0  0  0  0
  6 36  1  0  0  0  0
  6 19  1  1  0  0  0
  7  8  1  6  0  0  0
  7 14  1  0  0  0  0
  9 16  1  0  0  0  0
 10 11  1  6  0  0  0
 10 18  1  0  0  0  0
 12 13  1  6  0  0  0
 12 20  1  0  0  0  0
 14 15  1  1  0  0  0
 14 22  1  0  0  0  0
 16 17  1  1  0  0  0
 16 24  1  0  0  0  0
 18 19  1  6  0  0  0
 18 25  1  0  0  0  0
 20 21  1  1  0  0  0
 20 27  1  0  0  0  0
 22 23  1  1  0  0  0
 22 29  1  0  0  0  0
 24  2  1  1  0  0  0
 24 31  1  0  0  0  0
 25 26  1  0  0  0  0
 25 33  1  1  0  0  0
 27 28  1  1  0  0  0
 27 35  1  0  0  0  0
 29 30  1  0  0  0  0
 29 37  1  1  0  0  0
 31 32  1  6  0  0  0
 31 39  1  0  0  0  0
 33 34  1  0  0  0  0
 35 36  1  0  0  0  0
 35 41  1  6  0  0  0
 37 38  1  0  0  0  0
 39 40  1  6  0  0  0
 41 42  1  0  0  0  0
M  END
>  <CHROM.1>
-153.47995998,146.53431265,-92.22662262,125.08248563,-101.68883573,-62.25038392
-178.73007192,167.01285188,171.67374481,37.23843350,39.92175178,-12.34668798
0.70193811,0.96512676,2.10783889

>  <Name>
3c44_lig

>  <RI>
224

>  <Rbt.Current_Directory>
/home/itssahil/PROJECTS/Mol_Feturizer/New_Systems/rnas/3c44

>  <Rbt.Executable>
rbdock ($Id: //depot/dev/client3/rdock/2013.1/src/exe/rbdock.cxx#4 $)

>  <Rbt.Library>
libRbt.so (2013.1, Build901 2013/11/27)

>  <Rbt.Parameter_File>
/export/apps/rDock/src/rDock_2013.1_src/data/scripts/dock_solv.prm

>  <Rbt.Receptor>
prm/pocket_docking_8.prm

>  <SCORE>
-14.6794

>  <SCORE.INTER>
-21.9449

>  <SCORE.INTER.CONST>
1

>  <SCORE.INTER.POLAR>
-3.47391

>  <SCORE.INTER.ROT>
9

>  <SCORE.INTER.SOLV>
17.7055

>  <SCORE.INTER.VDW>
-18.5521

>  <SCORE.INTER.norm>
-0.522498

>  <SCORE.INTRA>
7.26554

>  <SCORE.INTRA.DIHEDRAL>
9.84172

>  <SCORE.INTRA.DIHEDRAL.0>
14.8538

>  <SCORE.INTRA.POLAR>
0

>  <SCORE.INTRA.POLAR.0>
0

>  <SCORE.INTRA.REPUL>
0.156249

>  <SCORE.INTRA.REPUL.0>
0

>  <SCORE.INTRA.SOLV>
0.0771945

>  <SCORE.INTRA.SOLV.lig_0>
-100.951

>  <SCORE.INTRA.VDW>
1.52484

>  <SCORE.INTRA.VDW.0>
-5.71388

>  <SCORE.INTRA.norm>
0.172989

>  <SCORE.RESTR>
0

>  <SCORE.RESTR.CAVITY>
0

>  <SCORE.RESTR.norm>
0

>  <SCORE.SYSTEM>
0

>  <SCORE.SYSTEM.CONST>
0

>  <SCORE.SYSTEM.DIHEDRAL>
0

>  <SCORE.SYSTEM.SOLV>
0

>  <SCORE.SYSTEM.norm>
0

>  <SCORE.heavy>
42

>  <SCORE.norm>
-0.349509

>  <RMSD>
8.639

$$$$
3c44_lig
 OpenBabel11021811463D
libRbt.so/2013.1/901 2013/11/27
 42 45  0  0  0  0  0  0  0  0999 V2000
   36.8553   42.7325  -11.4326 C   0  0  2  0  0  0  0  0  0  0  0  0
   37.2889   41.4334  -11.0010 O   0  0  0  0  0  0  0  0  0  0  0  0
   36.7281   39.7125   -7.2709 C   0  0  2  0  0  0  0  0  0  0  0  0
   36.3200   39.1383   -5.9796 N   0  0  0  0  0  0  0  0  0  0  0  0
   37.0305   38.5048  -12.0042 C   0  0  1  0  0  0  0  0  0  0  0  0
   38.9788   35.9766  -14.4135 C   0  0  1  0  0  0  0  0  0  0  0  0
   36.2660   42.6209  -12.8427 C   0  0  2  0  0  0  0  0  0  0  0  0
   35.2010   41.6085  -12.8868 N   0  0  0  0  0  0  0  0  0  0  0  0
   36.2088   41.1462   -7.4122 C   0  0  0  0  0  0  0  0  0  0  0  0
   36.5442   37.3114  -12.8278 C   0  0  2  0  0  0  0  0  0  0  0  0
   37.0529   36.0963  -12.2741 O   0  0  0  0  0  0  0  0  0  0  0  0
   40.4485   35.6699  -14.1070 C   0  0  2  0  0  0  0  0  0  0  0  0
   41.2785   36.6951  -14.7544 N   0  0  0  0  0  0  0  0  0  0  0  0
   37.3425   42.2588  -13.8689 C   0  0  1  0  0  0  0  0  0  0  0  0
   36.7807   42.3218  -15.1833 O   0  0  0  0  0  0  0  0  0  0  0  0
   36.7983   41.7311   -8.7000 C   0  0  2  0  0  0  0  0  0  0  0  0
   36.2723   43.0896   -8.9026 N   0  0  0  0  0  0  0  0  0  0  0  0
   37.2684   37.5944  -14.1425 C   0  0  2  0  0  0  0  0  0  0  0  0
   38.6748   37.3263  -14.0197 O   0  0  0  0  0  0  0  0  0  0  0  0
   40.8511   34.2918  -14.6479 C   0  0  1  0  0  0  0  0  0  0  0  0
   40.2332   33.2547  -13.8815 O   0  0  0  0  0  0  0  0  0  0  0  0
   38.5105   43.2412  -13.7646 C   0  0  2  0  0  0  0  0  0  0  0  0
   39.5601   42.8351  -14.6469 O   0  0  0  0  0  0  0  0  0  0  0  0
   36.4830   40.8879   -9.9419 C   0  0  2  0  0  0  0  0  0  0  0  0
   37.0452   39.0935  -14.2647 C   0  0  2  0  0  0  0  0  0  0  0  0
   36.9464   39.6120  -12.9205 O   0  0  0  0  0  0  0  0  0  0  0  0
   40.4375   34.1338  -16.1121 C   0  0  2  0  0  0  0  0  0  0  0  0
   41.2210   35.0237  -16.9122 O   0  0  0  0  0  0  0  0  0  0  0  0
   39.0290   43.2693  -12.3260 C   0  0  2  0  0  0  0  0  0  0  0  0
   37.9699   43.6439  -11.4231 O   0  0  0  0  0  0  0  0  0  0  0  0
   36.7598   39.3954   -9.7735 C   0  0  2  0  0  0  0  0  0  0  0  0
   36.1671   38.6753  -10.8666 O   0  0  0  0  0  0  0  0  0  0  0  0
   35.7587   39.3551  -15.0508 C   0  0  0  0  0  0  0  0  0  0  0  0
   35.8941   38.8078  -16.3642 O   0  0  0  0  0  0  0  0  0  0  0  0
   38.9486   34.4637  -16.2472 C   0  0  1  0  0  0  0  0  0  0  0  0
   38.7436   35.8226  -15.8222 O   0  0  0  0  0  0  0  0  0  0  0  0
   40.1609   44.2978  -12.2604 C   0  0  0  0  0  0  0  0  0  0  0  0
   41.3496   43.7848  -12.9565 O   0  0  0  0  0  0  0  0  0  0  0  0
   36.1995   38.8807   -8.4422 C   0  0  1  0  0  0  0  0  0  0  0  0
   36.5466   37.5056   -8.2646 O   0  0  0  0  0  0  0  0  0  0  0  0
   38.4493   34.3084  -17.6842 C   0  0  0  0  0  0  0  0  0  0  0  0
   38.4708   32.8859  -18.0527 N   0  0  0  0  0  0  0  0  0  0  0  0
  1  2  1  6  0  0  0
  1  7  1  0  0  0  0
  1 30  1  0  0  0  0
  3  4  1  1  0  0  0
  3  9  1  0  0  0  0
  3 39  1  0  0  0  0
  5 10  1  0  0  0  0
  5 26  1  0  0  0  0
  5 32  1  1  0  0  0
  6 12  1  0  0  0  0
  6 36  1  0  0  0  0
  6 19  1  6  0  0  0
  7  8  1  1  0  0  0
  7 14  1  0  0  0  0
  9 16  1  0  0  0  0
 10 11  1  1  0  0  0
 10 18  1  0  0  0  0
 12 13  1  6  0  0  0
 12 20  1  0  0  0  0
 14 15  1  6  0  0  0
 14 22  1  0  0  0  0
 16 17  1  6  0  0  0
 16 24  1  0  0  0  0
 18 19  1  1  0  0  0
 18 25  1  0  0  0  0
 20 21  1  1  0  0  0
 20 27  1  0  0  0  0
 22 23  1  6  0  0  0
 22 29  1  0  0  0  0
 24  2  1  6  0  0  0
 24 31  1  0  0  0  0
 25 26  1  0  0  0  0
 25 33  1  6  0  0  0
 27 28  1  6  0  0  0
 27 35  1  0  0  0  0
 29 30  1  0  0  0  0
 29 37  1  6  0  0  0
 31 32  1  6  0  0  0
 31 39  1  0  0  0  0
 33 34  1  0  0  0  0
 35 36  1  0  0  0  0
 35 41  1  6  0  0  0
 37 38  1  0  0  0  0
 39 40  1  1  0  0  0
 41 42  1  0  0  0  0
M  END
>  <CHROM.1>
-110.58945474,157.78520148,-173.00098078,92.25593977,-70.18252758,-61.39878286
-71.64887111,90.03423088,68.15326203,37.89831910,39.05647585,-12.81228187
-2.34404271,-1.21625462,3.07535891

>  <Name>
3c44_lig

>  <RI>
224

>  <Rbt.Current_Directory>
/home/itssahil/PROJECTS/Mol_Feturizer/New_Systems/rnas/3c44

>  <Rbt.Executable>
rbdock ($Id: //depot/dev/client3/rdock/2013.1/src/exe/rbdock.cxx#4 $)

>  <Rbt.Library>
libRbt.so (2013.1, Build901 2013/11/27)

>  <Rbt.Parameter_File>
/export/apps/rDock/src/rDock_2013.1_src/data/scripts/dock_solv.prm

>  <Rbt.Receptor>
prm/pocket_docking_8.prm

>  <SCORE>
-11.2095

>  <SCORE.INTER>
-15.2781

>  <SCORE.INTER.CONST>
1

>  <SCORE.INTER.POLAR>
-1.85158

>  <SCORE.INTER.ROT>
9

>  <SCORE.INTER.SOLV>
14.6937

>  <SCORE.INTER.VDW>
-18.5114

>  <SCORE.INTER.norm>
-0.363764

>  <SCORE.INTRA>
4.06857

>  <SCORE.INTRA.DIHEDRAL>
3.24083

>  <SCORE.INTRA.DIHEDRAL.0>
14.8538

>  <SCORE.INTRA.POLAR>
0

>  <SCORE.INTRA.POLAR.0>
0

>  <SCORE.INTRA.REPUL>
0.0196607

>  <SCORE.INTRA.REPUL.0>
0

>  <SCORE.INTRA.SOLV>
1.41148

>  <SCORE.INTRA.SOLV.lig_0>
-100.951

>  <SCORE.INTRA.VDW>
1.64411

>  <SCORE.INTRA.VDW.0>
-5.71388

>  <SCORE.INTRA.norm>
0.0968708

>  <SCORE.RESTR>
0

>  <SCORE.RESTR.CAVITY>
0

>  <SCORE.RESTR.norm>
0

>  <SCORE.SYSTEM>
0

>  <SCORE.SYSTEM.CONST>
0

>  <SCORE.SYSTEM.DIHEDRAL>
0

>  <SCORE.SYSTEM.SOLV>
0

>  <SCORE.SYSTEM.norm>
0

>  <SCORE.heavy>
42

>  <SCORE.norm>
-0.266893

>  <RMSD>
8.645

$$$$
3c44_lig
 OpenBabel11021811463D
libRbt.so/2013.1/901 2013/11/27
 42 45  0  0  0  0  0  0  0  0999 V2000
   40.5949   37.2201  -17.3188 C   0  0  2  0  0  0  0  0  0  0  0  0
   40.9385   36.3886  -16.1997 O   0  0  0  0  0  0  0  0  0  0  0  0
   39.0929   32.9842  -14.7188 C   0  0  2  0  0  0  0  0  0  0  0  0
   38.2750   31.9061  -14.1420 N   0  0  0  0  0  0  0  0  0  0  0  0
   37.3099   35.4864  -17.5307 C   0  0  1  0  0  0  0  0  0  0  0  0
   33.4804   36.5350  -16.5214 C   0  0  1  0  0  0  0  0  0  0  0  0
   41.8642   37.8939  -17.8505 C   0  0  2  0  0  0  0  0  0  0  0  0
   42.8957   36.8946  -18.1643 N   0  0  0  0  0  0  0  0  0  0  0  0
   39.2965   34.1104  -13.7013 C   0  0  0  0  0  0  0  0  0  0  0  0
   37.1983   36.7634  -16.6964 C   0  0  2  0  0  0  0  0  0  0  0  0
   37.3549   36.4560  -15.3098 O   0  0  0  0  0  0  0  0  0  0  0  0
   32.6060   36.0077  -15.3790 C   0  0  2  0  0  0  0  0  0  0  0  0
   32.8802   34.5738  -15.2121 N   0  0  0  0  0  0  0  0  0  0  0  0
   42.4289   38.8944  -16.8390 C   0  0  1  0  0  0  0  0  0  0  0  0
   43.5135   39.6094  -17.4387 O   0  0  0  0  0  0  0  0  0  0  0  0
   40.2785   35.1171  -14.3099 C   0  0  2  0  0  0  0  0  0  0  0  0
   40.4524   36.2472  -13.3849 N   0  0  0  0  0  0  0  0  0  0  0  0
   35.7357   37.1158  -16.9604 C   0  0  2  0  0  0  0  0  0  0  0  0
   34.8589   36.2177  -16.2605 O   0  0  0  0  0  0  0  0  0  0  0  0
   31.1154   36.1945  -15.6909 C   0  0  1  0  0  0  0  0  0  0  0  0
   30.7629   37.5791  -15.6325 O   0  0  0  0  0  0  0  0  0  0  0  0
   41.3370   39.8802  -16.4190 C   0  0  2  0  0  0  0  0  0  0  0  0
   41.8371   40.7428  -15.3939 O   0  0  0  0  0  0  0  0  0  0  0  0
   39.8192   35.6568  -15.6701 C   0  0  2  0  0  0  0  0  0  0  0  0
   35.6514   36.8473  -18.4547 C   0  0  2  0  0  0  0  0  0  0  0  0
   36.6108   35.8084  -18.7473 O   0  0  0  0  0  0  0  0  0  0  0  0
   30.7737   35.6585  -17.0822 C   0  0  2  0  0  0  0  0  0  0  0  0
   30.9150   34.2351  -17.0766 O   0  0  0  0  0  0  0  0  0  0  0  0
   40.1242   39.1087  -15.8966 C   0  0  2  0  0  0  0  0  0  0  0  0
   39.6323   38.2099  -16.9102 O   0  0  0  0  0  0  0  0  0  0  0  0
   39.3713   34.5781  -16.6542 C   0  0  2  0  0  0  0  0  0  0  0  0
   38.6991   35.1959  -17.7638 O   0  0  0  0  0  0  0  0  0  0  0  0
   35.9787   38.1299  -19.2224 C   0  0  0  0  0  0  0  0  0  0  0  0
   37.3825   38.1703  -19.4882 O   0  0  0  0  0  0  0  0  0  0  0  0
   31.7245   36.2863  -18.1048 C   0  0  1  0  0  0  0  0  0  0  0  0
   33.0720   35.9235  -17.7554 O   0  0  0  0  0  0  0  0  0  0  0  0
   39.0439   40.1313  -15.5351 C   0  0  0  0  0  0  0  0  0  0  0  0
   39.4248   40.8577  -14.3152 O   0  0  0  0  0  0  0  0  0  0  0  0
   38.4396   33.5681  -15.9740 C   0  0  1  0  0  0  0  0  0  0  0  0
   38.1047   32.5202  -16.8865 O   0  0  0  0  0  0  0  0  0  0  0  0
   31.4337   35.8160  -19.5305 C   0  0  0  0  0  0  0  0  0  0  0  0
   30.0812   36.2434  -19.9146 N   0  0  0  0  0  0  0  0  0  0  0  0
  1  2  1  1  0  0  0
  1  7  1  0  0  0  0
  1 30  1  0  0  0  0
  3  4  1  1  0  0  0
  3  9  1  0  0  0  0
  3 39  1  0  0  0  0
  5 10  1  0  0  0  0
  5 26  1  0  0  0  0
  5 32  1  6  0  0  0
  6 12  1  0  0  0  0
  6 36  1  0  0  0  0
  6 19  1  1  0  0  0
  7  8  1  1  0  0  0
  7 14  1  0  0  0  0
  9 16  1  0  0  0  0
 10 11  1  1  0  0  0
 10 18  1  0  0  0  0
 12 13  1  6  0  0  0
 12 20  1  0  0  0  0
 14 15  1  6  0  0  0
 14 22  1  0  0  0  0
 16 17  1  1  0  0  0
 16 24  1  0  0  0  0
 18 19  1  1  0  0  0
 18 25  1  0  0  0  0
 20 21  1  6  0  0  0
 20 27  1  0  0  0  0
 22 23  1  1  0  0  0
 22 29  1  0  0  0  0
 24  2  1  6  0  0  0
 24 31  1  0  0  0  0
 25 26  1  0  0  0  0
 25 33  1  6  0  0  0
 27 28  1  1  0  0  0
 27 35  1  0  0  0  0
 29 30  1  0  0  0  0
 29 37  1  6  0  0  0
 31 32  1  6  0  0  0
 31 39  1  0  0  0  0
 33 34  1  0  0  0  0
 35 36  1  0  0  0  0
 35 41  1  6  0  0  0
 37 38  1  0  0  0  0
 39 40  1  6  0  0  0
 41 42  1  0  0  0  0
M  END
>  <CHROM.1>
-177.02580323,79.04130613,-156.43440531,-179.20692180,-166.36796890,90.92087757
-72.08166237,-83.26223243,62.58655328,37.20381662,36.54385910,-16.63160498
0.16618148,-0.18404017,-0.35537246

>  <Name>
3c44_lig

>  <RI>
0

>  <Rbt.Current_Directory>
/home/itssahil/PROJECTS/Mol_Feturizer/New_Systems/rnas/3c44

>  <Rbt.Executable>
rbdock ($Id: //depot/dev/client3/rdock/2013.1/src/exe/rbdock.cxx#4 $)

>  <Rbt.Library>
libRbt.so (2013.1, Build901 2013/11/27)

>  <Rbt.Parameter_File>
/export/apps/rDock/src/rDock_2013.1_src/data/scripts/dock_solv.prm

>  <Rbt.Receptor>
prm/pocket_docking_7.prm

>  <SCORE>
0.00037475

>  <SCORE.INTER>
-0.932959

>  <SCORE.INTER.CONST>
1

>  <SCORE.INTER.POLAR>
0

>  <SCORE.INTER.ROT>
9

>  <SCORE.INTER.SOLV>
13.8936

>  <SCORE.INTER.VDW>
-14.8532

>  <SCORE.INTER.norm>
-0.0222133

>  <SCORE.INTRA>
0.933334

>  <SCORE.INTRA.DIHEDRAL>
-3.80209

>  <SCORE.INTRA.DIHEDRAL.0>
14.8538

>  <SCORE.INTRA.POLAR>
0

>  <SCORE.INTRA.POLAR.0>
0

>  <SCORE.INTRA.REPUL>
0.0132357

>  <SCORE.INTRA.REPUL.0>
0

>  <SCORE.INTRA.SOLV>
-2.14005

>  <SCORE.INTRA.SOLV.lig_0>
-100.951

>  <SCORE.INTRA.VDW>
3.83822

>  <SCORE.INTRA.VDW.0>
-5.71388

>  <SCORE.INTRA.norm>
0.0222222

>  <SCORE.RESTR>
0

>  <SCORE.RESTR.CAVITY>
0

>  <SCORE.RESTR.norm>
0

>  <SCORE.SYSTEM>
0

>  <SCORE.SYSTEM.CONST>
0

>  <SCORE.SYSTEM.DIHEDRAL>
0

>  <SCORE.SYSTEM.SOLV>
0

>  <SCORE.SYSTEM.norm>
0

>  <SCORE.heavy>
42

>  <SCORE.norm>
8.92261e-06

>  <RMSD>
8.646

$$$$
3c44_lig
 OpenBabel11021811463D
libRbt.so/2013.1/901 2013/11/27
 42 45  0  0  0  0  0  0  0  0999 V2000
   36.5859   42.3748  -13.1404 C   0  0  2  0  0  0  0  0  0  0  0  0
   37.1979   41.2892  -12.4273 O   0  0  0  0  0  0  0  0  0  0  0  0
   37.1866   40.3345   -8.3927 C   0  0  2  0  0  0  0  0  0  0  0  0
   36.9721   40.0370   -6.9681 N   0  0  0  0  0  0  0  0  0  0  0  0
   36.8235   37.8231  -12.4523 C   0  0  1  0  0  0  0  0  0  0  0  0
   39.5065   35.2375  -14.3633 C   0  0  1  0  0  0  0  0  0  0  0  0
   36.4698   41.9990  -14.6214 C   0  0  2  0  0  0  0  0  0  0  0  0
   35.7585   40.7228  -14.7838 N   0  0  0  0  0  0  0  0  0  0  0  0
   36.6878   41.7423   -8.7310 C   0  0  0  0  0  0  0  0  0  0  0  0
   37.5745   36.8006  -11.5981 C   0  0  2  0  0  0  0  0  0  0  0  0
   38.7793   37.3782  -11.0918 O   0  0  0  0  0  0  0  0  0  0  0  0
   40.7334   35.7582  -15.1192 C   0  0  2  0  0  0  0  0  0  0  0  0
   40.3460   36.9762  -15.8443 N   0  0  0  0  0  0  0  0  0  0  0  0
   37.8483   41.8898  -15.2777 C   0  0  1  0  0  0  0  0  0  0  0  0
   37.6857   41.6954  -16.6860 O   0  0  0  0  0  0  0  0  0  0  0  0
   37.0823   42.0411  -10.1812 C   0  0  2  0  0  0  0  0  0  0  0  0
   36.5655   43.3640  -10.5632 N   0  0  0  0  0  0  0  0  0  0  0  0
   37.9331   35.7794  -12.6758 C   0  0  2  0  0  0  0  0  0  0  0  0
   38.9722   36.2825  -13.5315 O   0  0  0  0  0  0  0  0  0  0  0  0
   41.2431   34.7213  -16.1286 C   0  0  1  0  0  0  0  0  0  0  0  0
   41.8421   33.6151  -15.4485 O   0  0  0  0  0  0  0  0  0  0  0  0
   38.6455   43.1712  -15.0273 C   0  0  2  0  0  0  0  0  0  0  0  0
   39.9697   43.0224  -15.5463 O   0  0  0  0  0  0  0  0  0  0  0  0
   36.5548   40.9979  -11.1741 C   0  0  2  0  0  0  0  0  0  0  0  0
   36.6240   35.7189  -13.4470 C   0  0  2  0  0  0  0  0  0  0  0  0
   35.9995   37.0140  -13.3119 O   0  0  0  0  0  0  0  0  0  0  0  0
   40.1028   34.2004  -17.0048 C   0  0  2  0  0  0  0  0  0  0  0  0
   39.6481   35.2608  -17.8502 O   0  0  0  0  0  0  0  0  0  0  0  0
   38.7095   43.4489  -13.5247 C   0  0  2  0  0  0  0  0  0  0  0  0
   37.3788   43.5664  -12.9837 O   0  0  0  0  0  0  0  0  0  0  0  0
   36.8169   39.5508  -10.7619 C   0  0  2  0  0  0  0  0  0  0  0  0
   36.0420   38.6715  -11.5932 O   0  0  0  0  0  0  0  0  0  0  0  0
   35.7378   34.6174  -12.8615 C   0  0  0  0  0  0  0  0  0  0  0  0
   34.6401   34.3812  -13.7459 O   0  0  0  0  0  0  0  0  0  0  0  0
   38.9663   33.7104  -16.1035 C   0  0  1  0  0  0  0  0  0  0  0  0
   38.5083   34.8172  -15.3070 O   0  0  0  0  0  0  0  0  0  0  0  0
   39.4724   44.7613  -13.3272 C   0  0  0  0  0  0  0  0  0  0  0  0
   39.5811   45.0710  -11.8942 O   0  0  0  0  0  0  0  0  0  0  0  0
   36.4598   39.3275   -9.2876 C   0  0  1  0  0  0  0  0  0  0  0  0
   36.7959   37.9934   -8.8998 O   0  0  0  0  0  0  0  0  0  0  0  0
   37.7908   33.1515  -16.9062 C   0  0  0  0  0  0  0  0  0  0  0  0
   38.2738   32.0816  -17.7902 N   0  0  0  0  0  0  0  0  0  0  0  0
  1  2  1  1  0  0  0
  1  7  1  0  0  0  0
  1 30  1  0  0  0  0
  3  4  1  1  0  0  0
  3  9  1  0  0  0  0
  3 39  1  0  0  0  0
  5 10  1  0  0  0  0
  5 26  1  0  0  0  0
  5 32  1  1  0  0  0
  6 12  1  0  0  0  0
  6 36  1  0  0  0  0
  6 19  1  1  0  0  0
  7  8  1  1  0  0  0
  7 14  1  0  0  0  0
  9 16  1  0  0  0  0
 10 11  1  6  0  0  0
 10 18  1  0  0  0  0
 12 13  1  6  0  0  0
 12 20  1  0  0  0  0
 14 15  1  6  0  0  0
 14 22  1  0  0  0  0
 16 17  1  6  0  0  0
 16 24  1  0  0  0  0
 18 19  1  6  0  0  0
 18 25  1  0  0  0  0
 20 21  1  1  0  0  0
 20 27  1  0  0  0  0
 22 23  1  1  0  0  0
 22 29  1  0  0  0  0
 24  2  1  6  0  0  0
 24 31  1  0  0  0  0
 25 26  1  0  0  0  0
 25 33  1  1  0  0  0
 27 28  1  6  0  0  0
 27 35  1  0  0  0  0
 29 30  1  0  0  0  0
 29 37  1  6  0  0  0
 31 32  1  6  0  0  0
 31 39  1  0  0  0  0
 33 34  1  0  0  0  0
 35 36  1  0  0  0  0
 35 41  1  6  0  0  0
 37 38  1  0  0  0  0
 39 40  1  1  0  0  0
 41 42  1  0  0  0  0
M  END
>  <CHROM.1>
-136.46298369,68.57251183,-172.27070714,167.98900468,-79.97262786,-168.33523480
-179.24460552,114.33780126,55.92398412,37.92184733,38.62447318,-13.31238964
-1.95130766,-1.14288863,-3.02385588

>  <Name>
3c44_lig

>  <RI>
0

>  <Rbt.Current_Directory>
/home/itssahil/PROJECTS/Mol_Feturizer/New_Systems/rnas/3c44

>  <Rbt.Executable>
rbdock ($Id: //depot/dev/client3/rdock/2013.1/src/exe/rbdock.cxx#4 $)

>  <Rbt.Library>
libRbt.so (2013.1, Build901 2013/11/27)

>  <Rbt.Parameter_File>
/export/apps/rDock/src/rDock_2013.1_src/data/scripts/dock_solv.prm

>  <Rbt.Receptor>
prm/pocket_docking_5.prm

>  <SCORE>
-13.5531

>  <SCORE.INTER>
-16.7198

>  <SCORE.INTER.CONST>
1

>  <SCORE.INTER.POLAR>
-1.85158

>  <SCORE.INTER.ROT>
9

>  <SCORE.INTER.SOLV>
15.7585

>  <SCORE.INTER.VDW>
-19.8275

>  <SCORE.INTER.norm>
-0.398092

>  <SCORE.INTRA>
2.73536

>  <SCORE.INTRA.DIHEDRAL>
2.16888

>  <SCORE.INTRA.DIHEDRAL.0>
14.8538

>  <SCORE.INTRA.POLAR>
0

>  <SCORE.INTRA.POLAR.0>
0

>  <SCORE.INTRA.REPUL>
0

>  <SCORE.INTRA.REPUL.0>
0

>  <SCORE.INTRA.SOLV>
-0.877821

>  <SCORE.INTRA.SOLV.lig_0>
-100.951

>  <SCORE.INTRA.VDW>
2.08983

>  <SCORE.INTRA.VDW.0>
-5.71388

>  <SCORE.INTRA.norm>
0.0651277

>  <SCORE.RESTR>
0.431354

>  <SCORE.RESTR.CAVITY>
0.431354

>  <SCORE.RESTR.norm>
0.0102703

>  <SCORE.SYSTEM>
0

>  <SCORE.SYSTEM.CONST>
0

>  <SCORE.SYSTEM.DIHEDRAL>
0

>  <SCORE.SYSTEM.SOLV>
0

>  <SCORE.SYSTEM.norm>
0

>  <SCORE.heavy>
42

>  <SCORE.norm>
-0.322694

>  <RMSD>
8.651

$$$$
3c44_lig
 OpenBabel11021811463D
libRbt.so/2013.1/901 2013/11/27
 42 45  0  0  0  0  0  0  0  0999 V2000
   37.3002   42.9785  -11.1693 C   0  0  2  0  0  0  0  0  0  0  0  0
   37.8780   41.6896  -10.9110 O   0  0  0  0  0  0  0  0  0  0  0  0
   38.0996   39.2696   -7.5518 C   0  0  2  0  0  0  0  0  0  0  0  0
   37.9814   38.4836   -6.3141 N   0  0  0  0  0  0  0  0  0  0  0  0
   36.7086   38.2159  -11.8750 C   0  0  1  0  0  0  0  0  0  0  0  0
   38.0320   36.2195  -15.3691 C   0  0  1  0  0  0  0  0  0  0  0  0
   35.8862   42.7904  -11.7290 C   0  0  2  0  0  0  0  0  0  0  0  0
   35.0732   41.9587  -10.8300 N   0  0  0  0  0  0  0  0  0  0  0  0
   37.8739   40.7578   -7.2696 C   0  0  0  0  0  0  0  0  0  0  0  0
   37.6153   38.9176  -12.8873 C   0  0  2  0  0  0  0  0  0  0  0  0
   36.8232   39.5887  -13.8691 O   0  0  0  0  0  0  0  0  0  0  0  0
   37.0341   35.3052  -16.0875 C   0  0  2  0  0  0  0  0  0  0  0  0
   36.3140   34.5217  -15.0743 N   0  0  0  0  0  0  0  0  0  0  0  0
   35.9181   42.1434  -13.1159 C   0  0  1  0  0  0  0  0  0  0  0  0
   34.5955   42.1338  -13.6618 O   0  0  0  0  0  0  0  0  0  0  0  0
   38.1645   41.5272   -8.5625 C   0  0  2  0  0  0  0  0  0  0  0  0
   37.8988   42.9576   -8.3476 N   0  0  0  0  0  0  0  0  0  0  0  0
   38.2711   37.6987  -13.5330 C   0  0  2  0  0  0  0  0  0  0  0  0
   37.3416   37.0087  -14.3845 O   0  0  0  0  0  0  0  0  0  0  0  0
   37.7530   34.3415  -17.0407 C   0  0  1  0  0  0  0  0  0  0  0  0
   38.2721   35.0502  -18.1691 O   0  0  0  0  0  0  0  0  0  0  0  0
   36.8458   42.9369  -14.0378 C   0  0  2  0  0  0  0  0  0  0  0  0
   36.9588   42.2683  -15.2968 O   0  0  0  0  0  0  0  0  0  0  0  0
   37.3264   41.0412   -9.7516 C   0  0  2  0  0  0  0  0  0  0  0  0
   38.5573   36.8533  -12.3020 C   0  0  2  0  0  0  0  0  0  0  0  0
   37.5435   37.1791  -11.3266 O   0  0  0  0  0  0  0  0  0  0  0  0
   38.9075   33.6290  -16.3343 C   0  0  2  0  0  0  0  0  0  0  0  0
   38.3699   32.7461  -15.3456 O   0  0  0  0  0  0  0  0  0  0  0  0
   38.2274   43.0576  -13.3930 C   0  0  2  0  0  0  0  0  0  0  0  0
   38.1215   43.6993  -12.1068 O   0  0  0  0  0  0  0  0  0  0  0  0
   37.3217   39.5253   -9.9380 C   0  0  2  0  0  0  0  0  0  0  0  0
   36.2949   39.1645  -10.8761 O   0  0  0  0  0  0  0  0  0  0  0  0
   39.9551   37.1805  -11.7724 C   0  0  0  0  0  0  0  0  0  0  0  0
   39.8678   38.2921  -10.8782 O   0  0  0  0  0  0  0  0  0  0  0  0
   39.8132   34.6759  -15.6805 C   0  0  1  0  0  0  0  0  0  0  0  0
   39.0347   35.4175  -14.7249 O   0  0  0  0  0  0  0  0  0  0  0  0
   39.1035   43.8973  -14.3262 C   0  0  0  0  0  0  0  0  0  0  0  0
   38.5739   45.2654  -14.4200 O   0  0  0  0  0  0  0  0  0  0  0  0
   37.0860   38.8096   -8.6026 C   0  0  1  0  0  0  0  0  0  0  0  0
   37.1742   37.3946   -8.7840 O   0  0  0  0  0  0  0  0  0  0  0  0
   41.0091   34.0430  -14.9680 C   0  0  0  0  0  0  0  0  0  0  0  0
   41.8384   35.1038  -14.3793 N   0  0  0  0  0  0  0  0  0  0  0  0
  1  2  1  6  0  0  0
  1  7  1  0  0  0  0
  1 30  1  0  0  0  0
  3  4  1  1  0  0  0
  3  9  1  0  0  0  0
  3 39  1  0  0  0  0
  5 10  1  0  0  0  0
  5 26  1  0  0  0  0
  5 32  1  1  0  0  0
  6 12  1  0  0  0  0
  6 36  1  0  0  0  0
  6 19  1  1  0  0  0
  7  8  1  1  0  0  0
  7 14  1  0  0  0  0
  9 16  1  0  0  0  0
 10 11  1  6  0  0  0
 10 18  1  0  0  0  0
 12 13  1  1  0  0  0
 12 20  1  0  0  0  0
 14 15  1  6  0  0  0
 14 22  1  0  0  0  0
 16 17  1  1  0  0  0
 16 24  1  0  0  0  0
 18 19  1  6  0  0  0
 18 25  1  0  0  0  0
 20 21  1  6  0  0  0
 20 27  1  0  0  0  0
 22 23  1  6  0  0  0
 22 29  1  0  0  0  0
 24  2  1  6  0  0  0
 24 31  1  0  0  0  0
 25 26  1  0  0  0  0
 25 33  1  1  0  0  0
 27 28  1  1  0  0  0
 27 35  1  0  0  0  0
 29 30  1  0  0  0  0
 29 37  1  6  0  0  0
 31 32  1  6  0  0  0
 31 39  1  0  0  0  0
 33 34  1  0  0  0  0
 35 36  1  0  0  0  0
 35 41  1  1  0  0  0
 37 38  1  0  0  0  0
 39 40  1  6  0  0  0
 41 42  1  0  0  0  0
M  END
>  <CHROM.1>
-73.67607097,-73.65259026,169.70720282,157.46501155,-87.87537231,87.01578686
64.66486970,134.43781929,179.38920822,37.82519996,38.95172800,-12.57687635
2.50954464,-1.37717511,1.50531729

>  <Name>
3c44_lig

>  <RI>
224

>  <Rbt.Current_Directory>
/home/itssahil/PROJECTS/Mol_Feturizer/New_Systems/rnas/3c44

>  <Rbt.Executable>
rbdock ($Id: //depot/dev/client3/rdock/2013.1/src/exe/rbdock.cxx#4 $)

>  <Rbt.Library>
libRbt.so (2013.1, Build901 2013/11/27)

>  <Rbt.Parameter_File>
/export/apps/rDock/src/rDock_2013.1_src/data/scripts/dock_solv.prm

>  <Rbt.Receptor>
prm/pocket_docking_8.prm

>  <SCORE>
-12.3048

>  <SCORE.INTER>
-16.5321

>  <SCORE.INTER.CONST>
1

>  <SCORE.INTER.POLAR>
-2.68486

>  <SCORE.INTER.ROT>
9

>  <SCORE.INTER.SOLV>
19.3295

>  <SCORE.INTER.VDW>
-18.115

>  <SCORE.INTER.norm>
-0.393622

>  <SCORE.INTRA>
4.22733

>  <SCORE.INTRA.DIHEDRAL>
1.56459

>  <SCORE.INTRA.DIHEDRAL.0>
14.8538

>  <SCORE.INTRA.POLAR>
0

>  <SCORE.INTRA.POLAR.0>
0

>  <SCORE.INTRA.REPUL>
0.127767

>  <SCORE.INTRA.REPUL.0>
0

>  <SCORE.INTRA.SOLV>
3.1685

>  <SCORE.INTRA.SOLV.lig_0>
-100.951

>  <SCORE.INTRA.VDW>
1.22195

>  <SCORE.INTRA.VDW.0>
-5.71388

>  <SCORE.INTRA.norm>
0.100651

>  <SCORE.RESTR>
0

>  <SCORE.RESTR.CAVITY>
0

>  <SCORE.RESTR.norm>
0

>  <SCORE.SYSTEM>
0

>  <SCORE.SYSTEM.CONST>
0

>  <SCORE.SYSTEM.DIHEDRAL>
0

>  <SCORE.SYSTEM.SOLV>
0

>  <SCORE.SYSTEM.norm>
0

>  <SCORE.heavy>
42

>  <SCORE.norm>
-0.292971

>  <RMSD>
8.676

$$$$
3c44_lig
 OpenBabel11021811463D
libRbt.so/2013.1/901 2013/11/27
 42 45  0  0  0  0  0  0  0  0999 V2000
   39.6995   43.0667  -11.4196 C   0  0  2  0  0  0  0  0  0  0  0  0
   39.2003   42.5346  -12.6563 O   0  0  0  0  0  0  0  0  0  0  0  0
   39.8864   43.2445  -16.6831 C   0  0  2  0  0  0  0  0  0  0  0  0
   40.3261   43.5584  -18.0513 N   0  0  0  0  0  0  0  0  0  0  0  0
   40.2265   39.4122  -13.8375 C   0  0  1  0  0  0  0  0  0  0  0  0
   37.7274   35.9683  -13.9597 C   0  0  1  0  0  0  0  0  0  0  0  0
   40.8409   42.1771  -10.9160 C   0  0  2  0  0  0  0  0  0  0  0  0
   41.8800   42.0255  -11.9448 N   0  0  0  0  0  0  0  0  0  0  0  0
   40.0616   44.4596  -15.7677 C   0  0  0  0  0  0  0  0  0  0  0  0
   39.9079   38.6613  -15.1312 C   0  0  2  0  0  0  0  0  0  0  0  0
   38.7140   39.1835  -15.7174 O   0  0  0  0  0  0  0  0  0  0  0  0
   36.4204   35.9694  -13.1599 C   0  0  2  0  0  0  0  0  0  0  0  0
   36.7161   36.4208  -11.7932 N   0  0  0  0  0  0  0  0  0  0  0  0
   40.3305   40.7913  -10.5133 C   0  0  1  0  0  0  0  0  0  0  0  0
   41.3960   40.0553   -9.9047 O   0  0  0  0  0  0  0  0  0  0  0  0
   39.4432   44.1133  -14.4091 C   0  0  2  0  0  0  0  0  0  0  0  0
   39.6470   45.2362  -13.4815 N   0  0  0  0  0  0  0  0  0  0  0  0
   39.6103   37.2771  -14.5582 C   0  0  2  0  0  0  0  0  0  0  0  0
   38.3433   37.2658  -13.8802 O   0  0  0  0  0  0  0  0  0  0  0  0
   35.8090   34.5636  -13.0963 C   0  0  1  0  0  0  0  0  0  0  0  0
   35.2971   34.1835  -14.3763 O   0  0  0  0  0  0  0  0  0  0  0  0
   39.1746   40.9320   -9.5211 C   0  0  2  0  0  0  0  0  0  0  0  0
   38.6294   39.6419   -9.2326 O   0  0  0  0  0  0  0  0  0  0  0  0
   40.0353   42.8429  -13.7862 C   0  0  2  0  0  0  0  0  0  0  0  0
   40.7329   37.1513  -13.5404 C   0  0  2  0  0  0  0  0  0  0  0  0
   41.0471   38.4894  -13.0975 O   0  0  0  0  0  0  0  0  0  0  0  0
   36.8486   33.5315  -12.6565 C   0  0  2  0  0  0  0  0  0  0  0  0
   37.1990   33.7809  -11.2922 O   0  0  0  0  0  0  0  0  0  0  0  0
   38.0897   41.8268  -10.1226 C   0  0  2  0  0  0  0  0  0  0  0  0
   38.6365   43.1195  -10.4499 O   0  0  0  0  0  0  0  0  0  0  0  0
   40.1070   41.6516  -14.7393 C   0  0  2  0  0  0  0  0  0  0  0  0
   40.9284   40.6260  -14.1578 O   0  0  0  0  0  0  0  0  0  0  0  0
   41.9462   36.4909  -14.1985 C   0  0  0  0  0  0  0  0  0  0  0  0
   42.9962   36.3771  -13.2354 O   0  0  0  0  0  0  0  0  0  0  0  0
   38.0815   33.6523  -13.5559 C   0  0  1  0  0  0  0  0  0  0  0  0
   38.6174   34.9800  -13.4168 O   0  0  0  0  0  0  0  0  0  0  0  0
   36.9802   41.9769   -9.0787 C   0  0  0  0  0  0  0  0  0  0  0  0
   36.2831   40.6957   -8.8956 O   0  0  0  0  0  0  0  0  0  0  0  0
   40.6775   42.0712  -16.0992 C   0  0  1  0  0  0  0  0  0  0  0  0
   40.6527   40.9638  -17.0026 O   0  0  0  0  0  0  0  0  0  0  0  0
   39.1645   32.6354  -13.1933 C   0  0  0  0  0  0  0  0  0  0  0  0
   40.2990   32.7874  -14.1150 N   0  0  0  0  0  0  0  0  0  0  0  0
  1  2  1  6  0  0  0
  1  7  1  0  0  0  0
  1 30  1  0  0  0  0
  3  4  1  6  0  0  0
  3  9  1  0  0  0  0
  3 39  1  0  0  0  0
  5 10  1  0  0  0  0
  5 26  1  0  0  0  0
  5 32  1  6  0  0  0
  6 12  1  0  0  0  0
  6 36  1  0  0  0  0
  6 19  1  1  0  0  0
  7  8  1  6  0  0  0
  7 14  1  0  0  0  0
  9 16  1  0  0  0  0
 10 11  1  1  0  0  0
 10 18  1  0  0  0  0
 12 13  1  1  0  0  0
 12 20  1  0  0  0  0
 14 15  1  1  0  0  0
 14 22  1  0  0  0  0
 16 17  1  1  0  0  0
 16 24  1  0  0  0  0
 18 19  1  1  0  0  0
 18 25  1  0  0  0  0
 20 21  1  6  0  0  0
 20 27  1  0  0  0  0
 22 23  1  6  0  0  0
 22 29  1  0  0  0  0
 24  2  1  1  0  0  0
 24 31  1  0  0  0  0
 25 26  1  0  0  0  0
 25 33  1  6  0  0  0
 27 28  1  1  0  0  0
 27 35  1  0  0  0  0
 29 30  1  0  0  0  0
 29 37  1  1  0  0  0
 31 32  1  1  0  0  0
 31 39  1  0  0  0  0
 33 34  1  0  0  0  0
 35 36  1  0  0  0  0
 35 41  1  1  0  0  0
 37 38  1  0  0  0  0
 39 40  1  6  0  0  0
 41 42  1  0  0  0  0
M  END
>  <CHROM.1>
-78.09720076,73.35897464,176.75409430,149.61370180,-94.49961823,179.97736482
-68.60331324,114.72781674,178.62228156,39.25089537,39.16996926,-13.08548693
1.02065482,1.14967027,0.48714849

>  <Name>
3c44_lig

>  <RI>
0

>  <Rbt.Current_Directory>
/home/itssahil/PROJECTS/Mol_Feturizer/New_Systems/rnas/3c44

>  <Rbt.Executable>
rbdock ($Id: //depot/dev/client3/rdock/2013.1/src/exe/rbdock.cxx#4 $)

>  <Rbt.Library>
libRbt.so (2013.1, Build901 2013/11/27)

>  <Rbt.Parameter_File>
/export/apps/rDock/src/rDock_2013.1_src/data/scripts/dock_solv.prm

>  <Rbt.Receptor>
prm/pocket_docking_4.prm

>  <SCORE>
-6.01315

>  <SCORE.INTER>
-8.92655

>  <SCORE.INTER.CONST>
1

>  <SCORE.INTER.POLAR>
-0.934765

>  <SCORE.INTER.ROT>
9

>  <SCORE.INTER.SOLV>
20.5469

>  <SCORE.INTER.VDW>
-19.2841

>  <SCORE.INTER.norm>
-0.212537

>  <SCORE.INTRA>
2.9134

>  <SCORE.INTRA.DIHEDRAL>
3.04843

>  <SCORE.INTRA.DIHEDRAL.0>
14.8538

>  <SCORE.INTRA.POLAR>
0

>  <SCORE.INTRA.POLAR.0>
0

>  <SCORE.INTRA.REPUL>
0

>  <SCORE.INTRA.REPUL.0>
0

>  <SCORE.INTRA.SOLV>
0.458949

>  <SCORE.INTRA.SOLV.lig_0>
-100.951

>  <SCORE.INTRA.VDW>
1.15971

>  <SCORE.INTRA.VDW.0>
-5.71388

>  <SCORE.INTRA.norm>
0.0693667

>  <SCORE.RESTR>
0

>  <SCORE.RESTR.CAVITY>
0

>  <SCORE.RESTR.norm>
0

>  <SCORE.SYSTEM>
0

>  <SCORE.SYSTEM.CONST>
0

>  <SCORE.SYSTEM.DIHEDRAL>
0

>  <SCORE.SYSTEM.SOLV>
0

>  <SCORE.SYSTEM.norm>
0

>  <SCORE.heavy>
42

>  <SCORE.norm>
-0.14317

>  <RMSD>
8.687

$$$$
3c44_lig
 OpenBabel11021811463D
libRbt.so/2013.1/901 2013/11/27
 42 45  0  0  0  0  0  0  0  0999 V2000
   39.9814   42.5968  -11.2793 C   0  0  2  0  0  0  0  0  0  0  0  0
   39.4266   41.2725  -11.2667 O   0  0  0  0  0  0  0  0  0  0  0  0
   38.1792   38.8776   -8.1206 C   0  0  2  0  0  0  0  0  0  0  0  0
   37.6392   38.2039   -6.9296 N   0  0  0  0  0  0  0  0  0  0  0  0
   36.2479   39.5790  -12.3245 C   0  0  1  0  0  0  0  0  0  0  0  0
   36.0487   37.8263  -16.1984 C   0  0  1  0  0  0  0  0  0  0  0  0
   38.9208   43.5793  -11.7869 C   0  0  2  0  0  0  0  0  0  0  0  0
   37.6869   43.4738  -10.9947 N   0  0  0  0  0  0  0  0  0  0  0  0
   39.0051   40.1031   -7.7194 C   0  0  0  0  0  0  0  0  0  0  0  0
   37.4368   39.5519  -13.2862 C   0  0  2  0  0  0  0  0  0  0  0  0
   37.4090   40.7049  -14.1296 O   0  0  0  0  0  0  0  0  0  0  0  0
   37.1912   38.3422  -17.0795 C   0  0  2  0  0  0  0  0  0  0  0  0
   36.9851   39.7791  -17.3079 N   0  0  0  0  0  0  0  0  0  0  0  0
   38.5912   43.3303  -13.2608 C   0  0  1  0  0  0  0  0  0  0  0  0
   37.7210   44.3646  -13.7303 O   0  0  0  0  0  0  0  0  0  0  0  0
   39.6606   40.6596   -8.9878 C   0  0  2  0  0  0  0  0  0  0  0  0
   40.4148   41.8766   -8.6518 N   0  0  0  0  0  0  0  0  0  0  0  0
   37.0671   38.3249  -14.1173 C   0  0  2  0  0  0  0  0  0  0  0  0
   35.9698   38.6158  -14.9985 O   0  0  0  0  0  0  0  0  0  0  0  0
   37.2136   37.6230  -18.4345 C   0  0  1  0  0  0  0  0  0  0  0  0
   37.6392   36.2674  -18.2732 O   0  0  0  0  0  0  0  0  0  0  0  0
   39.8782   43.3306  -14.0877 C   0  0  2  0  0  0  0  0  0  0  0  0
   39.5781   42.9891  -15.4436 O   0  0  0  0  0  0  0  0  0  0  0  0
   38.6477   40.9935  -10.0902 C   0  0  2  0  0  0  0  0  0  0  0  0
   36.6024   37.3780  -13.0220 C   0  0  2  0  0  0  0  0  0  0  0  0
   36.0694   38.1979  -11.9594 O   0  0  0  0  0  0  0  0  0  0  0  0
   35.8283   37.6292  -19.0831 C   0  0  2  0  0  0  0  0  0  0  0  0
   35.4950   38.9715  -19.4482 O   0  0  0  0  0  0  0  0  0  0  0  0
   40.8609   42.3134  -13.5057 C   0  0  2  0  0  0  0  0  0  0  0  0
   41.1441   42.6277  -12.1280 O   0  0  0  0  0  0  0  0  0  0  0  0
   37.6357   39.8841  -10.3692 C   0  0  2  0  0  0  0  0  0  0  0  0
   36.5771   40.4015  -11.1915 O   0  0  0  0  0  0  0  0  0  0  0  0
   37.7884   36.5448  -12.5313 C   0  0  0  0  0  0  0  0  0  0  0  0
   37.3032   35.4759  -11.7160 O   0  0  0  0  0  0  0  0  0  0  0  0
   34.8081   37.0780  -18.0834 C   0  0  1  0  0  0  0  0  0  0  0  0
   34.8100   37.9231  -16.9192 O   0  0  0  0  0  0  0  0  0  0  0  0
   42.1467   42.3838  -14.3335 C   0  0  0  0  0  0  0  0  0  0  0  0
   42.7867   43.6958  -14.1606 O   0  0  0  0  0  0  0  0  0  0  0  0
   37.0590   39.3268   -9.0623 C   0  0  1  0  0  0  0  0  0  0  0  0
   36.1835   38.2320   -9.3418 O   0  0  0  0  0  0  0  0  0  0  0  0
   33.3947   37.0311  -18.6651 C   0  0  0  0  0  0  0  0  0  0  0  0
   33.3580   36.0623  -19.7695 N   0  0  0  0  0  0  0  0  0  0  0  0
  1  2  1  6  0  0  0
  1  7  1  0  0  0  0
  1 30  1  0  0  0  0
  3  4  1  1  0  0  0
  3  9  1  0  0  0  0
  3 39  1  0  0  0  0
  5 10  1  0  0  0  0
  5 26  1  0  0  0  0
  5 32  1  1  0  0  0
  6 12  1  0  0  0  0
  6 36  1  0  0  0  0
  6 19  1  1  0  0  0
  7  8  1  1  0  0  0
  7 14  1  0  0  0  0
  9 16  1  0  0  0  0
 10 11  1  6  0  0  0
 10 18  1  0  0  0  0
 12 13  1  6  0  0  0
 12 20  1  0  0  0  0
 14 15  1  6  0  0  0
 14 22  1  0  0  0  0
 16 17  1  1  0  0  0
 16 24  1  0  0  0  0
 18 19  1  6  0  0  0
 18 25  1  0  0  0  0
 20 21  1  1  0  0  0
 20 27  1  0  0  0  0
 22 23  1  6  0  0  0
 22 29  1  0  0  0  0
 24  2  1  6  0  0  0
 24 31  1  0  0  0  0
 25 26  1  0  0  0  0
 25 33  1  1  0  0  0
 27 28  1  1  0  0  0
 27 35  1  0  0  0  0
 29 30  1  0  0  0  0
 29 37  1  6  0  0  0
 31 32  1  6  0  0  0
 31 39  1  0  0  0  0
 33 34  1  0  0  0  0
 35 36  1  0  0  0  0
 35 41  1  6  0  0  0
 37 38  1  0  0  0  0
 39 40  1  6  0  0  0
 41 42  1  0  0  0  0
M  END
>  <CHROM.1>
-82.80691399,-65.64615920,-72.19110330,149.78724968,-79.84486573,-167.95329421
65.35805845,131.92406344,65.57876554,37.72173579,39.84774810,-13.45087724
-0.83617617,-0.93506385,-1.41307978

>  <Name>
3c44_lig

>  <RI>
0

>  <Rbt.Current_Directory>
/home/itssahil/PROJECTS/Mol_Feturizer/New_Systems/rnas/3c44

>  <Rbt.Executable>
rbdock ($Id: //depot/dev/client3/rdock/2013.1/src/exe/rbdock.cxx#4 $)

>  <Rbt.Library>
libRbt.so (2013.1, Build901 2013/11/27)

>  <Rbt.Parameter_File>
/export/apps/rDock/src/rDock_2013.1_src/data/scripts/dock_solv.prm

>  <Rbt.Receptor>
prm/pocket_docking_6.prm

>  <SCORE>
-12.5565

>  <SCORE.INTER>
-15.1413

>  <SCORE.INTER.CONST>
1

>  <SCORE.INTER.POLAR>
-3.09703

>  <SCORE.INTER.ROT>
9

>  <SCORE.INTER.SOLV>
15.0146

>  <SCORE.INTER.VDW>
-14.3756

>  <SCORE.INTER.norm>
-0.360506

>  <SCORE.INTRA>
2.58473

>  <SCORE.INTRA.DIHEDRAL>
1.05931

>  <SCORE.INTRA.DIHEDRAL.0>
14.8538

>  <SCORE.INTRA.POLAR>
0

>  <SCORE.INTRA.POLAR.0>
0

>  <SCORE.INTRA.REPUL>
0

>  <SCORE.INTRA.REPUL.0>
0

>  <SCORE.INTRA.SOLV>
1.46997

>  <SCORE.INTRA.SOLV.lig_0>
-100.951

>  <SCORE.INTRA.VDW>
1.32009

>  <SCORE.INTRA.VDW.0>
-5.71388

>  <SCORE.INTRA.norm>
0.0615411

>  <SCORE.RESTR>
0

>  <SCORE.RESTR.CAVITY>
0

>  <SCORE.RESTR.norm>
0

>  <SCORE.SYSTEM>
0

>  <SCORE.SYSTEM.CONST>
0

>  <SCORE.SYSTEM.DIHEDRAL>
0

>  <SCORE.SYSTEM.SOLV>
0

>  <SCORE.SYSTEM.norm>
0

>  <SCORE.heavy>
42

>  <SCORE.norm>
-0.298965

>  <RMSD>
8.687

$$$$
3c44_lig
 OpenBabel11021811463D
libRbt.so/2013.1/901 2013/11/27
 42 45  0  0  0  0  0  0  0  0999 V2000
   38.6896   41.7415  -12.8621 C   0  0  2  0  0  0  0  0  0  0  0  0
   37.8277   41.6768  -11.7154 O   0  0  0  0  0  0  0  0  0  0  0  0
   38.0943   39.3908   -8.2669 C   0  0  2  0  0  0  0  0  0  0  0  0
   38.1570   38.4106   -7.1718 N   0  0  0  0  0  0  0  0  0  0  0  0
   40.3787   38.7305  -11.7188 C   0  0  1  0  0  0  0  0  0  0  0  0
   38.8820   35.0631  -13.1899 C   0  0  1  0  0  0  0  0  0  0  0  0
   38.9512   43.2107  -13.2098 C   0  0  2  0  0  0  0  0  0  0  0  0
   39.4769   43.9389  -12.0460 N   0  0  0  0  0  0  0  0  0  0  0  0
   36.7814   39.2500   -9.0426 C   0  0  0  0  0  0  0  0  0  0  0  0
   39.2882   38.5016  -12.7665 C   0  0  2  0  0  0  0  0  0  0  0  0
   38.0473   38.2057  -12.1229 O   0  0  0  0  0  0  0  0  0  0  0  0
   37.4022   35.4598  -13.2151 C   0  0  2  0  0  0  0  0  0  0  0  0
   36.9825   35.7638  -11.8402 N   0  0  0  0  0  0  0  0  0  0  0  0
   37.6763   43.9028  -13.6981 C   0  0  1  0  0  0  0  0  0  0  0  0
   38.0009   45.2181  -14.1586 O   0  0  0  0  0  0  0  0  0  0  0  0
   36.7155   40.3942  -10.0597 C   0  0  2  0  0  0  0  0  0  0  0  0
   35.4943   40.2571  -10.8676 N   0  0  0  0  0  0  0  0  0  0  0  0
   39.8212   37.2270  -13.4179 C   0  0  2  0  0  0  0  0  0  0  0  0
   39.6483   36.0969  -12.5472 O   0  0  0  0  0  0  0  0  0  0  0  0
   36.5321   34.3187  -13.7582 C   0  0  1  0  0  0  0  0  0  0  0  0
   36.7505   34.1488  -15.1612 O   0  0  0  0  0  0  0  0  0  0  0  0
   37.0552   43.0994  -14.8423 C   0  0  2  0  0  0  0  0  0  0  0  0
   35.8084   43.6884  -15.2214 O   0  0  0  0  0  0  0  0  0  0  0  0
   37.9281   40.4342  -10.9981 C   0  0  2  0  0  0  0  0  0  0  0  0
   41.2996   37.5667  -13.5228 C   0  0  2  0  0  0  0  0  0  0  0  0
   41.6010   38.4621  -12.4306 O   0  0  0  0  0  0  0  0  0  0  0  0
   36.8481   33.0011  -13.0485 C   0  0  2  0  0  0  0  0  0  0  0  0
   36.4224   33.0963  -11.6862 O   0  0  0  0  0  0  0  0  0  0  0  0
   36.8267   41.6565  -14.3896 C   0  0  2  0  0  0  0  0  0  0  0  0
   38.0721   41.0633  -13.9720 O   0  0  0  0  0  0  0  0  0  0  0  0
   39.2757   40.3347  -10.2862 C   0  0  2  0  0  0  0  0  0  0  0  0
   40.3084   40.0901  -11.2549 O   0  0  0  0  0  0  0  0  0  0  0  0
   41.5750   38.2335  -14.8723 C   0  0  0  0  0  0  0  0  0  0  0  0
   42.9872   38.2946  -15.0839 O   0  0  0  0  0  0  0  0  0  0  0  0
   38.3558   32.7456  -13.1210 C   0  0  1  0  0  0  0  0  0  0  0  0
   39.0331   33.8321  -12.4651 O   0  0  0  0  0  0  0  0  0  0  0  0
   36.2511   40.8826  -15.5784 C   0  0  0  0  0  0  0  0  0  0  0  0
   35.8360   39.5384  -15.1520 O   0  0  0  0  0  0  0  0  0  0  0  0
   39.2619   39.2131   -9.2408 C   0  0  1  0  0  0  0  0  0  0  0  0
   40.4996   39.1957   -8.5261 O   0  0  0  0  0  0  0  0  0  0  0  0
   38.7531   31.4305  -12.4495 C   0  0  0  0  0  0  0  0  0  0  0  0
   38.4899   30.3174  -13.3721 N   0  0  0  0  0  0  0  0  0  0  0  0
  1  2  1  1  0  0  0
  1  7  1  0  0  0  0
  1 30  1  0  0  0  0
  3  4  1  1  0  0  0
  3  9  1  0  0  0  0
  3 39  1  0  0  0  0
  5 10  1  0  0  0  0
  5 26  1  0  0  0  0
  5 32  1  6  0  0  0
  6 12  1  0  0  0  0
  6 36  1  0  0  0  0
  6 19  1  1  0  0  0
  7  8  1  1  0  0  0
  7 14  1  0  0  0  0
  9 16  1  0  0  0  0
 10 11  1  1  0  0  0
 10 18  1  0  0  0  0
 12 13  1  1  0  0  0
 12 20  1  0  0  0  0
 14 15  1  6  0  0  0
 14 22  1  0  0  0  0
 16 17  1  6  0  0  0
 16 24  1  0  0  0  0
 18 19  1  1  0  0  0
 18 25  1  0  0  0  0
 20 21  1  6  0  0  0
 20 27  1  0  0  0  0
 22 23  1  1  0  0  0
 22 29  1  0  0  0  0
 24  2  1  1  0  0  0
 24 31  1  0  0  0  0
 25 26  1  0  0  0  0
 25 33  1  6  0  0  0
 27 28  1  1  0  0  0
 27 35  1  0  0  0  0
 29 30  1  0  0  0  0
 29 37  1  6  0  0  0
 31 32  1  6  0  0  0
 31 39  1  0  0  0  0
 33 34  1  0  0  0  0
 35 36  1  0  0  0  0
 35 41  1  1  0  0  0
 37 38  1  0  0  0  0
 39 40  1  1  0  0  0
 41 42  1  0  0  0  0
M  END
>  <CHROM.1>
-157.22514865,79.23547727,-75.66001597,123.13270296,-165.73714944,-167.97674101
-172.14458704,-77.73273721,80.45512011,38.39460952,38.50642892,-12.50962637
1.70294619,-1.34239168,0.11293236

>  <Name>
3c44_lig

>  <RI>
0

>  <Rbt.Current_Directory>
/home/itssahil/PROJECTS/Mol_Feturizer/New_Systems/rnas/3c44

>  <Rbt.Executable>
rbdock ($Id: //depot/dev/client3/rdock/2013.1/src/exe/rbdock.cxx#4 $)

>  <Rbt.Library>
libRbt.so (2013.1, Build901 2013/11/27)

>  <Rbt.Parameter_File>
/export/apps/rDock/src/rDock_2013.1_src/data/scripts/dock_solv.prm

>  <Rbt.Receptor>
prm/pocket_docking_5.prm

>  <SCORE>
-12.2904

>  <SCORE.INTER>
-16.7331

>  <SCORE.INTER.CONST>
1

>  <SCORE.INTER.POLAR>
-2.33452

>  <SCORE.INTER.ROT>
9

>  <SCORE.INTER.SOLV>
24.3868

>  <SCORE.INTER.VDW>
-21.1025

>  <SCORE.INTER.norm>
-0.398406

>  <SCORE.INTRA>
4.21448

>  <SCORE.INTRA.DIHEDRAL>
1.68082

>  <SCORE.INTRA.DIHEDRAL.0>
14.8538

>  <SCORE.INTRA.POLAR>
0

>  <SCORE.INTRA.POLAR.0>
0

>  <SCORE.INTRA.REPUL>
0

>  <SCORE.INTRA.REPUL.0>
0

>  <SCORE.INTRA.SOLV>
-1.66228

>  <SCORE.INTRA.SOLV.lig_0>
-100.951

>  <SCORE.INTRA.VDW>
4.20522

>  <SCORE.INTRA.VDW.0>
-5.71388

>  <SCORE.INTRA.norm>
0.100345

>  <SCORE.RESTR>
0.228189

>  <SCORE.RESTR.CAVITY>
0.228189

>  <SCORE.RESTR.norm>
0.00543306

>  <SCORE.SYSTEM>
0

>  <SCORE.SYSTEM.CONST>
0

>  <SCORE.SYSTEM.DIHEDRAL>
0

>  <SCORE.SYSTEM.SOLV>
0

>  <SCORE.SYSTEM.norm>
0

>  <SCORE.heavy>
42

>  <SCORE.norm>
-0.292628

>  <RMSD>
8.700

$$$$
3c44_lig
 OpenBabel11021811463D
libRbt.so/2013.1/901 2013/11/27
 42 45  0  0  0  0  0  0  0  0999 V2000
   39.7001   41.2050  -13.7943 C   0  0  2  0  0  0  0  0  0  0  0  0
   40.2715   40.4193  -12.7369 O   0  0  0  0  0  0  0  0  0  0  0  0
   38.2131   38.2361   -9.8757 C   0  0  2  0  0  0  0  0  0  0  0  0
   37.4448   37.6506   -8.7664 N   0  0  0  0  0  0  0  0  0  0  0  0
   36.6713   39.9407  -13.9158 C   0  0  1  0  0  0  0  0  0  0  0  0
   34.7894   38.4084  -17.0800 C   0  0  1  0  0  0  0  0  0  0  0  0
   40.5720   41.0686  -15.0469 C   0  0  2  0  0  0  0  0  0  0  0  0
   40.7546   39.6550  -15.4068 N   0  0  0  0  0  0  0  0  0  0  0  0
   39.3756   39.0780   -9.3418 C   0  0  0  0  0  0  0  0  0  0  0  0
   35.5041   40.8283  -14.3504 C   0  0  2  0  0  0  0  0  0  0  0  0
   34.3391   40.5119  -13.5859 O   0  0  0  0  0  0  0  0  0  0  0  0
   34.1870   39.3581  -18.1207 C   0  0  2  0  0  0  0  0  0  0  0  0
   32.8273   39.7117  -17.6904 N   0  0  0  0  0  0  0  0  0  0  0  0
   41.9450   41.7136  -14.8424 C   0  0  1  0  0  0  0  0  0  0  0  0
   42.6602   41.7023  -16.0817 O   0  0  0  0  0  0  0  0  0  0  0  0
   40.2180   39.5242  -10.5415 C   0  0  2  0  0  0  0  0  0  0  0  0
   41.3122   40.3882  -10.0732 N   0  0  0  0  0  0  0  0  0  0  0  0
   35.3104   40.3181  -15.7769 C   0  0  2  0  0  0  0  0  0  0  0  0
   34.7141   39.0106  -15.7759 O   0  0  0  0  0  0  0  0  0  0  0  0
   34.1127   38.6920  -19.5009 C   0  0  1  0  0  0  0  0  0  0  0  0
   35.4229   38.5426  -20.0542 O   0  0  0  0  0  0  0  0  0  0  0  0
   41.7747   43.1565  -14.3637 C   0  0  2  0  0  0  0  0  0  0  0  0
   43.0558   43.7193  -14.0687 O   0  0  0  0  0  0  0  0  0  0  0  0
   39.4047   40.2837  -11.5971 C   0  0  2  0  0  0  0  0  0  0  0  0
   36.7572   40.2169  -16.2338 C   0  0  2  0  0  0  0  0  0  0  0  0
   37.5486   39.9433  -15.0573 O   0  0  0  0  0  0  0  0  0  0  0  0
   33.4570   37.3130  -19.4111 C   0  0  2  0  0  0  0  0  0  0  0  0
   32.0776   37.4786  -19.0703 O   0  0  0  0  0  0  0  0  0  0  0  0
   40.9007   43.1797  -13.1088 C   0  0  2  0  0  0  0  0  0  0  0  0
   39.6182   42.5829  -13.3850 O   0  0  0  0  0  0  0  0  0  0  0  0
   38.0995   39.5982  -11.9961 C   0  0  2  0  0  0  0  0  0  0  0  0
   37.2925   40.5152  -12.7528 O   0  0  0  0  0  0  0  0  0  0  0  0
   37.1793   41.5352  -16.8860 C   0  0  0  0  0  0  0  0  0  0  0  0
   38.5309   41.4218  -17.3370 O   0  0  0  0  0  0  0  0  0  0  0  0
   34.1769   36.4882  -18.3410 C   0  0  1  0  0  0  0  0  0  0  0  0
   34.0564   37.1729  -17.0816 O   0  0  0  0  0  0  0  0  0  0  0  0
   40.7192   44.6427  -12.6964 C   0  0  0  0  0  0  0  0  0  0  0  0
   39.9577   44.7224  -11.4415 O   0  0  0  0  0  0  0  0  0  0  0  0
   37.3300   39.1216  -10.7585 C   0  0  1  0  0  0  0  0  0  0  0  0
   36.1586   38.4058  -11.1567 O   0  0  0  0  0  0  0  0  0  0  0  0
   33.5923   35.0818  -18.2035 C   0  0  0  0  0  0  0  0  0  0  0  0
   32.1983   35.1798  -17.7485 N   0  0  0  0  0  0  0  0  0  0  0  0
  1  2  1  1  0  0  0
  1  7  1  0  0  0  0
  1 30  1  0  0  0  0
  3  4  1  1  0  0  0
  3  9  1  0  0  0  0
  3 39  1  0  0  0  0
  5 10  1  0  0  0  0
  5 26  1  0  0  0  0
  5 32  1  1  0  0  0
  6 12  1  0  0  0  0
  6 36  1  0  0  0  0
  6 19  1  1  0  0  0
  7  8  1  1  0  0  0
  7 14  1  0  0  0  0
  9 16  1  0  0  0  0
 10 11  1  1  0  0  0
 10 18  1  0  0  0  0
 12 13  1  1  0  0  0
 12 20  1  0  0  0  0
 14 15  1  6  0  0  0
 14 22  1  0  0  0  0
 16 17  1  1  0  0  0
 16 24  1  0  0  0  0
 18 19  1  1  0  0  0
 18 25  1  0  0  0  0
 20 21  1  1  0  0  0
 20 27  1  0  0  0  0
 22 23  1  1  0  0  0
 22 29  1  0  0  0  0
 24  2  1  6  0  0  0
 24 31  1  0  0  0  0
 25 26  1  0  0  0  0
 25 33  1  1  0  0  0
 27 28  1  1  0  0  0
 27 35  1  0  0  0  0
 29 30  1  0  0  0  0
 29 37  1  6  0  0  0
 31 32  1  1  0  0  0
 31 39  1  0  0  0  0
 33 34  1  0  0  0  0
 35 36  1  0  0  0  0
 35 41  1  1  0  0  0
 37 38  1  0  0  0  0
 39 40  1  6  0  0  0
 41 42  1  0  0  0  0
M  END
>  <CHROM.1>
-169.34011774,160.95265936,-53.60891655,-167.71453791,-175.45944705,-178.81552734
-176.31647678,136.45589923,-63.48430255,37.48332909,39.96936956,-14.65864555
-0.49153033,-0.65575983,-1.32356811

>  <Name>
3c44_lig

>  <RI>
0

>  <Rbt.Current_Directory>
/home/itssahil/PROJECTS/Mol_Feturizer/New_Systems/rnas/3c44

>  <Rbt.Executable>
rbdock ($Id: //depot/dev/client3/rdock/2013.1/src/exe/rbdock.cxx#4 $)

>  <Rbt.Library>
libRbt.so (2013.1, Build901 2013/11/27)

>  <Rbt.Parameter_File>
/export/apps/rDock/src/rDock_2013.1_src/data/scripts/dock_solv.prm

>  <Rbt.Receptor>
prm/pocket_docking_6.prm

>  <SCORE>
-16.6551

>  <SCORE.INTER>
-17.0462

>  <SCORE.INTER.CONST>
1

>  <SCORE.INTER.POLAR>
-2.9178

>  <SCORE.INTER.ROT>
9

>  <SCORE.INTER.SOLV>
21.8578

>  <SCORE.INTER.VDW>
-18.5241

>  <SCORE.INTER.norm>
-0.405862

>  <SCORE.INTRA>
0.391126

>  <SCORE.INTRA.DIHEDRAL>
-5.22409

>  <SCORE.INTRA.DIHEDRAL.0>
14.8538

>  <SCORE.INTRA.POLAR>
0

>  <SCORE.INTRA.POLAR.0>
0

>  <SCORE.INTRA.REPUL>
0

>  <SCORE.INTRA.REPUL.0>
0

>  <SCORE.INTRA.SOLV>
-0.518083

>  <SCORE.INTRA.SOLV.lig_0>
-100.951

>  <SCORE.INTRA.VDW>
3.26221

>  <SCORE.INTRA.VDW.0>
-5.71388

>  <SCORE.INTRA.norm>
0.00931252

>  <SCORE.RESTR>
0

>  <SCORE.RESTR.CAVITY>
0

>  <SCORE.RESTR.norm>
0

>  <SCORE.SYSTEM>
0

>  <SCORE.SYSTEM.CONST>
0

>  <SCORE.SYSTEM.DIHEDRAL>
0

>  <SCORE.SYSTEM.SOLV>
0

>  <SCORE.SYSTEM.norm>
0

>  <SCORE.heavy>
42

>  <SCORE.norm>
-0.39655

>  <RMSD>
8.701

$$$$
3c44_lig
 OpenBabel11021811463D
libRbt.so/2013.1/901 2013/11/27
 42 45  0  0  0  0  0  0  0  0999 V2000
   38.5989   40.5435  -13.0753 C   0  0  2  0  0  0  0  0  0  0  0  0
   38.4710   41.9691  -13.1908 O   0  0  0  0  0  0  0  0  0  0  0  0
   40.0074   44.7611  -15.8428 C   0  0  2  0  0  0  0  0  0  0  0  0
   40.7454   45.6775  -16.7258 N   0  0  0  0  0  0  0  0  0  0  0  0
   38.3906   40.1621  -15.8199 C   0  0  1  0  0  0  0  0  0  0  0  0
   34.7405   38.1871  -16.3872 C   0  0  1  0  0  0  0  0  0  0  0  0
   37.3288   39.9773  -12.4318 C   0  0  2  0  0  0  0  0  0  0  0  0
   36.1327   40.3949  -13.1775 N   0  0  0  0  0  0  0  0  0  0  0  0
   40.4846   44.9057  -14.3949 C   0  0  0  0  0  0  0  0  0  0  0  0
   37.6592   40.3596  -17.1485 C   0  0  2  0  0  0  0  0  0  0  0  0
   36.8131   41.5087  -17.0739 O   0  0  0  0  0  0  0  0  0  0  0  0
   33.5147   38.4702  -15.5126 C   0  0  2  0  0  0  0  0  0  0  0  0
   33.9663   38.6326  -14.1238 N   0  0  0  0  0  0  0  0  0  0  0  0
   37.1931   40.4297  -10.9758 C   0  0  1  0  0  0  0  0  0  0  0  0
   36.0857   39.7529  -10.3733 O   0  0  0  0  0  0  0  0  0  0  0  0
   39.5732   44.0436  -13.5150 C   0  0  2  0  0  0  0  0  0  0  0  0
   40.0392   44.1085  -12.1216 N   0  0  0  0  0  0  0  0  0  0  0  0
   36.7874   39.1056  -17.1508 C   0  0  2  0  0  0  0  0  0  0  0  0
   35.7200   39.2229  -16.1959 O   0  0  0  0  0  0  0  0  0  0  0  0
   32.5104   37.3119  -15.5750 C   0  0  1  0  0  0  0  0  0  0  0  0
   31.8763   37.2695  -16.8560 O   0  0  0  0  0  0  0  0  0  0  0  0
   38.4739   40.0984  -10.2077 C   0  0  2  0  0  0  0  0  0  0  0  0
   38.3861   40.6203   -8.8792 O   0  0  0  0  0  0  0  0  0  0  0  0
   39.5288   42.5748  -13.9543 C   0  0  2  0  0  0  0  0  0  0  0  0
   37.7904   38.0699  -16.6677 C   0  0  2  0  0  0  0  0  0  0  0  0
   38.7312   38.7633  -15.8196 O   0  0  0  0  0  0  0  0  0  0  0  0
   33.2019   35.9707  -15.3244 C   0  0  2  0  0  0  0  0  0  0  0  0
   33.6449   35.9262  -13.9650 O   0  0  0  0  0  0  0  0  0  0  0  0
   39.6753   40.7157  -10.9252 C   0  0  2  0  0  0  0  0  0  0  0  0
   39.7538   40.2231  -12.2774 O   0  0  0  0  0  0  0  0  0  0  0  0
   39.2917   42.3742  -15.4497 C   0  0  2  0  0  0  0  0  0  0  0  0
   39.5561   41.0044  -15.7938 O   0  0  0  0  0  0  0  0  0  0  0  0
   38.4950   37.4419  -17.8722 C   0  0  0  0  0  0  0  0  0  0  0  0
   37.5499   36.6701  -18.6165 O   0  0  0  0  0  0  0  0  0  0  0  0
   34.3914   35.8379  -16.2790 C   0  0  1  0  0  0  0  0  0  0  0  0
   35.3051   36.9183  -16.0200 O   0  0  0  0  0  0  0  0  0  0  0  0
   40.9338   40.3183  -10.1496 C   0  0  0  0  0  0  0  0  0  0  0  0
   42.1274   40.8663  -10.8098 O   0  0  0  0  0  0  0  0  0  0  0  0
   40.1877   43.3041  -16.2764 C   0  0  1  0  0  0  0  0  0  0  0  0
   39.8867   43.1644  -17.6667 O   0  0  0  0  0  0  0  0  0  0  0  0
   35.1269   34.5084  -16.1059 C   0  0  0  0  0  0  0  0  0  0  0  0
   34.2915   33.4210  -16.6342 N   0  0  0  0  0  0  0  0  0  0  0  0
  1  2  1  1  0  0  0
  1  7  1  0  0  0  0
  1 30  1  0  0  0  0
  3  4  1  6  0  0  0
  3  9  1  0  0  0  0
  3 39  1  0  0  0  0
  5 10  1  0  0  0  0
  5 26  1  0  0  0  0
  5 32  1  6  0  0  0
  6 12  1  0  0  0  0
  6 36  1  0  0  0  0
  6 19  1  1  0  0  0
  7  8  1  6  0  0  0
  7 14  1  0  0  0  0
  9 16  1  0  0  0  0
 10 11  1  1  0  0  0
 10 18  1  0  0  0  0
 12 13  1  1  0  0  0
 12 20  1  0  0  0  0
 14 15  1  1  0  0  0
 14 22  1  0  0  0  0
 16 17  1  1  0  0  0
 16 24  1  0  0  0  0
 18 19  1  1  0  0  0
 18 25  1  0  0  0  0
 20 21  1  6  0  0  0
 20 27  1  0  0  0  0
 22 23  1  1  0  0  0
 22 29  1  0  0  0  0
 24  2  1  1  0  0  0
 24 31  1  0  0  0  0
 25 26  1  0  0  0  0
 25 33  1  6  0  0  0
 27 28  1  1  0  0  0
 27 35  1  0  0  0  0
 29 30  1  0  0  0  0
 29 37  1  1  0  0  0
 31 32  1  6  0  0  0
 31 39  1  0  0  0  0
 33 34  1  0  0  0  0
 35 36  1  0  0  0  0
 35 41  1  1  0  0  0
 37 38  1  0  0  0  0
 39 40  1  6  0  0  0
 41 42  1  0  0  0  0
M  END
>  <CHROM.1>
-171.67032445,80.73133186,-170.90951142,167.77005887,-157.65086659,-67.37247792
178.99948548,95.58107671,71.46341997,37.45493422,39.87220036,-14.59909148
0.24230424,0.85688254,1.68157319

>  <Name>
3c44_lig

>  <RI>
0

>  <Rbt.Current_Directory>
/home/itssahil/PROJECTS/Mol_Feturizer/New_Systems/rnas/3c44

>  <Rbt.Executable>
rbdock ($Id: //depot/dev/client3/rdock/2013.1/src/exe/rbdock.cxx#4 $)

>  <Rbt.Library>
libRbt.so (2013.1, Build901 2013/11/27)

>  <Rbt.Parameter_File>
/export/apps/rDock/src/rDock_2013.1_src/data/scripts/dock_solv.prm

>  <Rbt.Receptor>
prm/pocket_docking_5.prm

>  <SCORE>
-4.12009

>  <SCORE.INTER>
-3.87988

>  <SCORE.INTER.CONST>
1

>  <SCORE.INTER.POLAR>
-1.35973

>  <SCORE.INTER.ROT>
9

>  <SCORE.INTER.SOLV>
13.0659

>  <SCORE.INTER.VDW>
-12.0094

>  <SCORE.INTER.norm>
-0.092378

>  <SCORE.INTRA>
-0.252798

>  <SCORE.INTRA.DIHEDRAL>
-3.64681

>  <SCORE.INTRA.DIHEDRAL.0>
14.8538

>  <SCORE.INTRA.POLAR>
0

>  <SCORE.INTRA.POLAR.0>
0

>  <SCORE.INTRA.REPUL>
0.0450635

>  <SCORE.INTRA.REPUL.0>
0

>  <SCORE.INTRA.SOLV>
0.584978

>  <SCORE.INTRA.SOLV.lig_0>
-100.951

>  <SCORE.INTRA.VDW>
1.0528

>  <SCORE.INTRA.VDW.0>
-5.71388

>  <SCORE.INTRA.norm>
-0.006019

>  <SCORE.RESTR>
0.0125789

>  <SCORE.RESTR.CAVITY>
0.0125789

>  <SCORE.RESTR.norm>
0.000299498

>  <SCORE.SYSTEM>
0

>  <SCORE.SYSTEM.CONST>
0

>  <SCORE.SYSTEM.DIHEDRAL>
0

>  <SCORE.SYSTEM.SOLV>
0

>  <SCORE.SYSTEM.norm>
0

>  <SCORE.heavy>
42

>  <SCORE.norm>
-0.0980975

>  <RMSD>
8.708

$$$$
3c44_lig
 OpenBabel11021811463D
libRbt.so/2013.1/901 2013/11/27
 42 45  0  0  0  0  0  0  0  0999 V2000
   37.5314   41.1804  -12.3035 C   0  0  2  0  0  0  0  0  0  0  0  0
   38.2347   39.9288  -12.2782 O   0  0  0  0  0  0  0  0  0  0  0  0
   41.5020   41.8459  -13.9630 C   0  0  2  0  0  0  0  0  0  0  0  0
   42.7804   42.3824  -14.4548 N   0  0  0  0  0  0  0  0  0  0  0  0
   38.3088   38.1860  -14.7147 C   0  0  1  0  0  0  0  0  0  0  0  0
   34.6829   36.6933  -16.3755 C   0  0  1  0  0  0  0  0  0  0  0  0
   36.0296   40.9141  -12.1571 C   0  0  2  0  0  0  0  0  0  0  0  0
   35.7537   40.1169  -10.9532 N   0  0  0  0  0  0  0  0  0  0  0  0
   41.4846   41.8109  -12.4321 C   0  0  0  0  0  0  0  0  0  0  0  0
   38.2616   37.0405  -15.7270 C   0  0  2  0  0  0  0  0  0  0  0  0
   38.3024   37.5620  -17.0567 O   0  0  0  0  0  0  0  0  0  0  0  0
   33.8245   37.5901  -17.2736 C   0  0  2  0  0  0  0  0  0  0  0  0
   33.5539   38.8416  -16.5527 N   0  0  0  0  0  0  0  0  0  0  0  0
   35.4722   40.1815  -13.3801 C   0  0  1  0  0  0  0  0  0  0  0  0
   34.0481   40.0969  -13.2702 O   0  0  0  0  0  0  0  0  0  0  0  0
   40.0779   41.3928  -11.9910 C   0  0  2  0  0  0  0  0  0  0  0  0
   40.0390   41.2883  -10.5245 N   0  0  0  0  0  0  0  0  0  0  0  0
   36.8565   36.5099  -15.4492 C   0  0  2  0  0  0  0  0  0  0  0  0
   35.8596   37.4094  -15.9612 O   0  0  0  0  0  0  0  0  0  0  0  0
   32.4892   36.9161  -17.6152 C   0  0  1  0  0  0  0  0  0  0  0  0
   32.6973   35.8216  -18.5116 O   0  0  0  0  0  0  0  0  0  0  0  0
   35.8422   40.9427  -14.6544 C   0  0  2  0  0  0  0  0  0  0  0  0
   35.4158   40.1991  -15.7991 O   0  0  0  0  0  0  0  0  0  0  0  0
   39.6320   40.0552  -12.5947 C   0  0  2  0  0  0  0  0  0  0  0  0
   36.8420   36.5466  -13.9291 C   0  0  2  0  0  0  0  0  0  0  0  0
   37.7195   37.6214  -13.5288 O   0  0  0  0  0  0  0  0  0  0  0  0
   31.7986   36.3940  -16.3541 C   0  0  2  0  0  0  0  0  0  0  0  0
   31.3900   37.5085  -15.5559 O   0  0  0  0  0  0  0  0  0  0  0  0
   37.3572   41.1462  -14.7075 C   0  0  2  0  0  0  0  0  0  0  0  0
   37.8035   41.8648  -13.5407 O   0  0  0  0  0  0  0  0  0  0  0  0
   39.8515   39.9431  -14.1020 C   0  0  2  0  0  0  0  0  0  0  0  0
   39.6777   38.5756  -14.5076 O   0  0  0  0  0  0  0  0  0  0  0  0
   37.3319   35.2041  -13.3820 C   0  0  0  0  0  0  0  0  0  0  0  0
   37.0643   35.1454  -11.9792 O   0  0  0  0  0  0  0  0  0  0  0  0
   32.7801   35.5118  -15.5781 C   0  0  1  0  0  0  0  0  0  0  0  0
   33.9222   36.3093  -15.2190 O   0  0  0  0  0  0  0  0  0  0  0  0
   37.6734   41.9511  -15.9707 C   0  0  0  0  0  0  0  0  0  0  0  0
   37.5859   41.0855  -17.1556 O   0  0  0  0  0  0  0  0  0  0  0  0
   41.2526   40.4304  -14.4897 C   0  0  1  0  0  0  0  0  0  0  0  0
   41.4047   40.4009  -15.9107 O   0  0  0  0  0  0  0  0  0  0  0  0
   32.1568   34.9306  -14.3084 C   0  0  0  0  0  0  0  0  0  0  0  0
   30.9932   34.1103  -14.6725 N   0  0  0  0  0  0  0  0  0  0  0  0
  1  2  1  6  0  0  0
  1  7  1  0  0  0  0
  1 30  1  0  0  0  0
  3  4  1  1  0  0  0
  3  9  1  0  0  0  0
  3 39  1  0  0  0  0
  5 10  1  0  0  0  0
  5 26  1  0  0  0  0
  5 32  1  1  0  0  0
  6 12  1  0  0  0  0
  6 36  1  0  0  0  0
  6 19  1  1  0  0  0
  7  8  1  1  0  0  0
  7 14  1  0  0  0  0
  9 16  1  0  0  0  0
 10 11  1  6  0  0  0
 10 18  1  0  0  0  0
 12 13  1  1  0  0  0
 12 20  1  0  0  0  0
 14 15  1  1  0  0  0
 14 22  1  0  0  0  0
 16 17  1  1  0  0  0
 16 24  1  0  0  0  0
 18 19  1  6  0  0  0
 18 25  1  0  0  0  0
 20 21  1  6  0  0  0
 20 27  1  0  0  0  0
 22 23  1  6  0  0  0
 22 29  1  0  0  0  0
 24  2  1  6  0  0  0
 24 31  1  0  0  0  0
 25 26  1  0  0  0  0
 25 33  1  1  0  0  0
 27 28  1  1  0  0  0
 27 35  1  0  0  0  0
 29 30  1  0  0  0  0
 29 37  1  6  0  0  0
 31 32  1  1  0  0  0
 31 39  1  0  0  0  0
 33 34  1  0  0  0  0
 35 36  1  0  0  0  0
 35 41  1  1  0  0  0
 37 38  1  0  0  0  0
 39 40  1  6  0  0  0
 41 42  1  0  0  0  0
M  END
>  <CHROM.1>
171.84459933,153.20780371,-163.58125425,148.70921746,35.60300330,-168.44571675
-76.20584202,82.53591578,60.06408724,36.73023183,38.78371142,-14.56531643
0.29956744,0.57554134,1.52089873

>  <Name>
3c44_lig

>  <RI>
0

>  <Rbt.Current_Directory>
/home/itssahil/PROJECTS/Mol_Feturizer/New_Systems/rnas/3c44

>  <Rbt.Executable>
rbdock ($Id: //depot/dev/client3/rdock/2013.1/src/exe/rbdock.cxx#4 $)

>  <Rbt.Library>
libRbt.so (2013.1, Build901 2013/11/27)

>  <Rbt.Parameter_File>
/export/apps/rDock/src/rDock_2013.1_src/data/scripts/dock_solv.prm

>  <Rbt.Receptor>
prm/pocket_docking_4.prm

>  <SCORE>
-7.95375

>  <SCORE.INTER>
-13.5183

>  <SCORE.INTER.CONST>
1

>  <SCORE.INTER.POLAR>
-3.37996

>  <SCORE.INTER.ROT>
9

>  <SCORE.INTER.SOLV>
17.0206

>  <SCORE.INTER.VDW>
-13.0192

>  <SCORE.INTER.norm>
-0.321864

>  <SCORE.INTRA>
5.56452

>  <SCORE.INTRA.DIHEDRAL>
-0.265041

>  <SCORE.INTRA.DIHEDRAL.0>
14.8538

>  <SCORE.INTRA.POLAR>
0

>  <SCORE.INTRA.POLAR.0>
0

>  <SCORE.INTRA.REPUL>
0.356765

>  <SCORE.INTRA.REPUL.0>
0

>  <SCORE.INTRA.SOLV>
0.0852181

>  <SCORE.INTRA.SOLV.lig_0>
-100.951

>  <SCORE.INTRA.VDW>
3.8706

>  <SCORE.INTRA.VDW.0>
-5.71388

>  <SCORE.INTRA.norm>
0.132488

>  <SCORE.RESTR>
0

>  <SCORE.RESTR.CAVITY>
0

>  <SCORE.RESTR.norm>
0

>  <SCORE.SYSTEM>
0

>  <SCORE.SYSTEM.CONST>
0

>  <SCORE.SYSTEM.DIHEDRAL>
0

>  <SCORE.SYSTEM.SOLV>
0

>  <SCORE.SYSTEM.norm>
0

>  <SCORE.heavy>
42

>  <SCORE.norm>
-0.189375

>  <RMSD>
8.737

$$$$
3c44_lig
 OpenBabel11021811463D
libRbt.so/2013.1/901 2013/11/27
 42 45  0  0  0  0  0  0  0  0999 V2000
   36.8195   42.8255  -12.3365 C   0  0  2  0  0  0  0  0  0  0  0  0
   37.2289   41.5504  -11.8184 O   0  0  0  0  0  0  0  0  0  0  0  0
   37.0994   40.2895   -7.8709 C   0  0  2  0  0  0  0  0  0  0  0  0
   36.8445   39.8906   -6.4782 N   0  0  0  0  0  0  0  0  0  0  0  0
   36.6572   38.5497  -12.4224 C   0  0  1  0  0  0  0  0  0  0  0  0
   38.4412   35.6719  -14.5468 C   0  0  1  0  0  0  0  0  0  0  0  0
   36.0309   42.6097  -13.6324 C   0  0  2  0  0  0  0  0  0  0  0  0
   34.9100   41.6836  -13.4156 N   0  0  0  0  0  0  0  0  0  0  0  0
   36.6534   41.7351   -8.1086 C   0  0  0  0  0  0  0  0  0  0  0  0
   36.1677   37.1742  -12.8778 C   0  0  2  0  0  0  0  0  0  0  0  0
   36.8758   36.1482  -12.1795 O   0  0  0  0  0  0  0  0  0  0  0  0
   39.9639   35.5343  -14.4456 C   0  0  2  0  0  0  0  0  0  0  0  0
   40.5753   36.4352  -15.4324 N   0  0  0  0  0  0  0  0  0  0  0  0
   36.9269   42.0582  -14.7442 C   0  0  1  0  0  0  0  0  0  0  0  0
   36.1897   42.0237  -15.9700 O   0  0  0  0  0  0  0  0  0  0  0  0
   37.0887   42.1310   -9.5234 C   0  0  2  0  0  0  0  0  0  0  0  0
   36.6228   43.4959   -9.8116 N   0  0  0  0  0  0  0  0  0  0  0  0
   36.6429   37.1999  -14.3292 C   0  0  2  0  0  0  0  0  0  0  0  0
   38.0706   37.0542  -14.4026 O   0  0  0  0  0  0  0  0  0  0  0  0
   40.4110   34.0969  -14.7426 C   0  0  1  0  0  0  0  0  0  0  0  0
   40.0280   33.2246  -13.6762 O   0  0  0  0  0  0  0  0  0  0  0  0
   38.1562   42.9532  -14.9121 C   0  0  2  0  0  0  0  0  0  0  0  0
   39.0434   42.3755  -15.8734 O   0  0  0  0  0  0  0  0  0  0  0  0
   36.5498   41.1854  -10.6042 C   0  0  2  0  0  0  0  0  0  0  0  0
   36.2553   38.6167  -14.7226 C   0  0  2  0  0  0  0  0  0  0  0  0
   36.3195   39.4160  -13.5216 O   0  0  0  0  0  0  0  0  0  0  0  0
   39.7892   33.5856  -16.0432 C   0  0  2  0  0  0  0  0  0  0  0  0
   40.3442   34.3175  -17.1398 O   0  0  0  0  0  0  0  0  0  0  0  0
   38.8738   43.0946  -13.5688 C   0  0  2  0  0  0  0  0  0  0  0  0
   37.9782   43.6441  -12.5822 O   0  0  0  0  0  0  0  0  0  0  0  0
   36.7565   39.7030  -10.3005 C   0  0  2  0  0  0  0  0  0  0  0  0
   35.9721   38.9167  -11.2122 O   0  0  0  0  0  0  0  0  0  0  0  0
   34.8411   38.6149  -15.3069 C   0  0  0  0  0  0  0  0  0  0  0  0
   34.5396   39.9201  -15.8054 O   0  0  0  0  0  0  0  0  0  0  0  0
   38.2724   33.7835  -15.9813 C   0  0  1  0  0  0  0  0  0  0  0  0
   38.0031   35.1881  -15.8264 O   0  0  0  0  0  0  0  0  0  0  0  0
   40.0648   44.0339  -13.7753 C   0  0  0  0  0  0  0  0  0  0  0  0
   40.8549   44.1261  -12.5391 O   0  0  0  0  0  0  0  0  0  0  0  0
   36.3605   39.3791   -8.8551 C   0  0  1  0  0  0  0  0  0  0  0  0
   36.6452   38.0087   -8.5654 O   0  0  0  0  0  0  0  0  0  0  0  0
   37.5704   33.2757  -17.2414 C   0  0  0  0  0  0  0  0  0  0  0  0
   37.9757   34.1017  -18.3872 N   0  0  0  0  0  0  0  0  0  0  0  0
  1  2  1  6  0  0  0
  1  7  1  0  0  0  0
  1 30  1  0  0  0  0
  3  4  1  1  0  0  0
  3  9  1  0  0  0  0
  3 39  1  0  0  0  0
  5 10  1  0  0  0  0
  5 26  1  0  0  0  0
  5 32  1  1  0  0  0
  6 12  1  0  0  0  0
  6 36  1  0  0  0  0
  6 19  1  6  0  0  0
  7  8  1  1  0  0  0
  7 14  1  0  0  0  0
  9 16  1  0  0  0  0
 10 11  1  1  0  0  0
 10 18  1  0  0  0  0
 12 13  1  6  0  0  0
 12 20  1  0  0  0  0
 14 15  1  6  0  0  0
 14 22  1  0  0  0  0
 16 17  1  6  0  0  0
 16 24  1  0  0  0  0
 18 19  1  1  0  0  0
 18 25  1  0  0  0  0
 20 21  1  1  0  0  0
 20 27  1  0  0  0  0
 22 23  1  6  0  0  0
 22 29  1  0  0  0  0
 24  2  1  6  0  0  0
 24 31  1  0  0  0  0
 25 26  1  0  0  0  0
 25 33  1  1  0  0  0
 27 28  1  6  0  0  0
 27 35  1  0  0  0  0
 29 30  1  0  0  0  0
 29 37  1  6  0  0  0
 31 32  1  6  0  0  0
 31 39  1  0  0  0  0
 33 34  1  0  0  0  0
 35 36  1  0  0  0  0
 35 41  1  6  0  0  0
 37 38  1  0  0  0  0
 39 40  1  1  0  0  0
 41 42  1  0  0  0  0
M  END
>  <CHROM.1>
-110.63954176,146.86013959,-172.95791136,92.07737758,-70.10542094,-173.82318982
-175.64528215,90.52507102,-65.90812602,37.56562168,39.03872261,-13.25475306
-2.52121485,-1.35848224,2.76004142

>  <Name>
3c44_lig

>  <RI>
0

>  <Rbt.Current_Directory>
/home/itssahil/PROJECTS/Mol_Feturizer/New_Systems/rnas/3c44

>  <Rbt.Executable>
rbdock ($Id: //depot/dev/client3/rdock/2013.1/src/exe/rbdock.cxx#4 $)

>  <Rbt.Library>
libRbt.so (2013.1, Build901 2013/11/27)

>  <Rbt.Parameter_File>
/export/apps/rDock/src/rDock_2013.1_src/data/scripts/dock_solv.prm

>  <Rbt.Receptor>
prm/pocket_docking_6.prm

>  <SCORE>
-14.1652

>  <SCORE.INTER>
-19.3794

>  <SCORE.INTER.CONST>
1

>  <SCORE.INTER.POLAR>
-2.71076

>  <SCORE.INTER.ROT>
9

>  <SCORE.INTER.SOLV>
12.493

>  <SCORE.INTER.VDW>
-17.6481

>  <SCORE.INTER.norm>
-0.461414

>  <SCORE.INTRA>
5.21418

>  <SCORE.INTRA.DIHEDRAL>
4.86832

>  <SCORE.INTRA.DIHEDRAL.0>
14.8538

>  <SCORE.INTRA.POLAR>
0

>  <SCORE.INTRA.POLAR.0>
0

>  <SCORE.INTRA.REPUL>
0

>  <SCORE.INTRA.REPUL.0>
0

>  <SCORE.INTRA.SOLV>
3.3242

>  <SCORE.INTRA.SOLV.lig_0>
-100.951

>  <SCORE.INTRA.VDW>
1.11793

>  <SCORE.INTRA.VDW.0>
-5.71388

>  <SCORE.INTRA.norm>
0.124147

>  <SCORE.RESTR>
0

>  <SCORE.RESTR.CAVITY>
0

>  <SCORE.RESTR.norm>
0

>  <SCORE.SYSTEM>
0

>  <SCORE.SYSTEM.CONST>
0

>  <SCORE.SYSTEM.DIHEDRAL>
0

>  <SCORE.SYSTEM.SOLV>
0

>  <SCORE.SYSTEM.norm>
0

>  <SCORE.heavy>
42

>  <SCORE.norm>
-0.337267

>  <RMSD>
8.737

$$$$
3c44_lig
 OpenBabel11021811463D
libRbt.so/2013.1/901 2013/11/27
 42 45  0  0  0  0  0  0  0  0999 V2000
   39.0952   43.3241  -15.1284 C   0  0  2  0  0  0  0  0  0  0  0  0
   39.0284   43.5525  -13.7124 O   0  0  0  0  0  0  0  0  0  0  0  0
   35.9131   42.7208  -11.1061 C   0  0  2  0  0  0  0  0  0  0  0  0
   34.8134   42.2272  -10.2630 N   0  0  0  0  0  0  0  0  0  0  0  0
   39.6414   40.6123  -11.8935 C   0  0  1  0  0  0  0  0  0  0  0  0
   40.5209   36.8016  -13.4414 C   0  0  1  0  0  0  0  0  0  0  0  0
   39.6891   41.9349  -15.3843 C   0  0  2  0  0  0  0  0  0  0  0  0
   38.9322   40.9008  -14.6640 N   0  0  0  0  0  0  0  0  0  0  0  0
   35.6032   42.4888  -12.5877 C   0  0  0  0  0  0  0  0  0  0  0  0
   40.7901   39.8078  -11.2833 C   0  0  2  0  0  0  0  0  0  0  0  0
   42.0167   40.1328  -11.9403 O   0  0  0  0  0  0  0  0  0  0  0  0
   41.0110   36.5988  -14.8789 C   0  0  2  0  0  0  0  0  0  0  0  0
   40.2190   37.4650  -15.7630 N   0  0  0  0  0  0  0  0  0  0  0  0
   41.1571   41.8695  -14.9556 C   0  0  1  0  0  0  0  0  0  0  0  0
   41.7097   40.6123  -15.3573 O   0  0  0  0  0  0  0  0  0  0  0  0
   36.7093   43.1624  -13.4068 C   0  0  2  0  0  0  0  0  0  0  0  0
   36.4789   42.9084  -14.8369 N   0  0  0  0  0  0  0  0  0  0  0  0
   40.3671   38.4002  -11.6986 C   0  0  2  0  0  0  0  0  0  0  0  0
   40.5702   38.1997  -13.1070 O   0  0  0  0  0  0  0  0  0  0  0  0
   40.8336   35.1413  -15.3240 C   0  0  1  0  0  0  0  0  0  0  0  0
   41.7616   34.2943  -14.6411 O   0  0  0  0  0  0  0  0  0  0  0  0
   41.9412   43.0062  -15.6138 C   0  0  2  0  0  0  0  0  0  0  0  0
   43.2854   43.0081  -15.1257 O   0  0  0  0  0  0  0  0  0  0  0  0
   38.1144   42.6710  -13.0368 C   0  0  2  0  0  0  0  0  0  0  0  0
   38.8768   38.4602  -11.4031 C   0  0  2  0  0  0  0  0  0  0  0  0
   38.4715   39.8353  -11.5770 O   0  0  0  0  0  0  0  0  0  0  0  0
   39.4146   34.6477  -15.0369 C   0  0  2  0  0  0  0  0  0  0  0  0
   38.5013   35.3467  -15.8875 O   0  0  0  0  0  0  0  0  0  0  0  0
   41.2736   44.3435  -15.2894 C   0  0  2  0  0  0  0  0  0  0  0  0
   39.9066   44.3405  -15.7461 O   0  0  0  0  0  0  0  0  0  0  0  0
   38.3981   42.6541  -11.5362 C   0  0  2  0  0  0  0  0  0  0  0  0
   39.6063   41.9167  -11.2887 O   0  0  0  0  0  0  0  0  0  0  0  0
   38.6218   37.9889   -9.9697 C   0  0  0  0  0  0  0  0  0  0  0  0
   39.2361   38.9047   -9.0604 O   0  0  0  0  0  0  0  0  0  0  0  0
   39.0838   34.9117  -13.5656 C   0  0  1  0  0  0  0  0  0  0  0  0
   39.1696   36.3277  -13.3273 O   0  0  0  0  0  0  0  0  0  0  0  0
   42.0625   45.4422  -16.0064 C   0  0  0  0  0  0  0  0  0  0  0  0
   42.0129   45.2318  -17.4605 O   0  0  0  0  0  0  0  0  0  0  0  0
   37.2325   42.0234  -10.7650 C   0  0  1  0  0  0  0  0  0  0  0  0
   37.4788   42.0985   -9.3591 O   0  0  0  0  0  0  0  0  0  0  0  0
   37.6833   34.4254  -13.1908 C   0  0  0  0  0  0  0  0  0  0  0  0
   37.5259   34.4827  -11.7309 N   0  0  0  0  0  0  0  0  0  0  0  0
  1  2  1  1  0  0  0
  1  7  1  0  0  0  0
  1 30  1  0  0  0  0
  3  4  1  1  0  0  0
  3  9  1  0  0  0  0
  3 39  1  0  0  0  0
  5 10  1  0  0  0  0
  5 26  1  0  0  0  0
  5 32  1  1  0  0  0
  6 12  1  0  0  0  0
  6 36  1  0  0  0  0
  6 19  1  6  0  0  0
  7  8  1  1  0  0  0
  7 14  1  0  0  0  0
  9 16  1  0  0  0  0
 10 11  1  6  0  0  0
 10 18  1  0  0  0  0
 12 13  1  6  0  0  0
 12 20  1  0  0  0  0
 14 15  1  6  0  0  0
 14 22  1  0  0  0  0
 16 17  1  6  0  0  0
 16 24  1  0  0  0  0
 18 19  1  6  0  0  0
 18 25  1  0  0  0  0
 20 21  1  1  0  0  0
 20 27  1  0  0  0  0
 22 23  1  1  0  0  0
 22 29  1  0  0  0  0
 24  2  1  6  0  0  0
 24 31  1  0  0  0  0
 25 26  1  0  0  0  0
 25 33  1  1  0  0  0
 27 28  1  6  0  0  0
 27 35  1  0  0  0  0
 29 30  1  0  0  0  0
 29 37  1  6  0  0  0
 31 32  1  6  0  0  0
 31 39  1  0  0  0  0
 33 34  1  0  0  0  0
 35 36  1  0  0  0  0
 35 41  1  6  0  0  0
 37 38  1  0  0  0  0
 39 40  1  1  0  0  0
 41 42  1  0  0  0  0
M  END
>  <CHROM.1>
-65.49566502,-166.00188198,-168.86560733,164.55710151,-73.42962966,64.66272407
61.70460363,-51.44871781,169.74247352,39.43367808,40.13000968,-13.36567152
-1.53351318,-0.85651310,3.05962203

>  <Name>
3c44_lig

>  <RI>
0

>  <Rbt.Current_Directory>
/home/itssahil/PROJECTS/Mol_Feturizer/New_Systems/rnas/3c44

>  <Rbt.Executable>
rbdock ($Id: //depot/dev/client3/rdock/2013.1/src/exe/rbdock.cxx#4 $)

>  <Rbt.Library>
libRbt.so (2013.1, Build901 2013/11/27)

>  <Rbt.Parameter_File>
/export/apps/rDock/src/rDock_2013.1_src/data/scripts/dock_solv.prm

>  <Rbt.Receptor>
prm/pocket_docking_5.prm

>  <SCORE>
-7.26595

>  <SCORE.INTER>
-9.87189

>  <SCORE.INTER.CONST>
1

>  <SCORE.INTER.POLAR>
-0.926815

>  <SCORE.INTER.ROT>
9

>  <SCORE.INTER.SOLV>
17.1608

>  <SCORE.INTER.VDW>
-18.8122

>  <SCORE.INTER.norm>
-0.235045

>  <SCORE.INTRA>
2.60594

>  <SCORE.INTRA.DIHEDRAL>
-10.037

>  <SCORE.INTRA.DIHEDRAL.0>
14.8538

>  <SCORE.INTRA.POLAR>
0

>  <SCORE.INTRA.POLAR.0>
0

>  <SCORE.INTRA.REPUL>
0.0266877

>  <SCORE.INTRA.REPUL.0>
0

>  <SCORE.INTRA.SOLV>
5.64932

>  <SCORE.INTRA.SOLV.lig_0>
-100.951

>  <SCORE.INTRA.VDW>
4.66636

>  <SCORE.INTRA.VDW.0>
-5.71388

>  <SCORE.INTRA.norm>
0.0620461

>  <SCORE.RESTR>
0

>  <SCORE.RESTR.CAVITY>
0

>  <SCORE.RESTR.norm>
0

>  <SCORE.SYSTEM>
0

>  <SCORE.SYSTEM.CONST>
0

>  <SCORE.SYSTEM.DIHEDRAL>
0

>  <SCORE.SYSTEM.SOLV>
0

>  <SCORE.SYSTEM.norm>
0

>  <SCORE.heavy>
42

>  <SCORE.norm>
-0.172999

>  <RMSD>
8.773

$$$$
3c44_lig
 OpenBabel11021811463D
libRbt.so/2013.1/901 2013/11/27
 42 45  0  0  0  0  0  0  0  0999 V2000
   40.0829   41.5992  -14.3250 C   0  0  2  0  0  0  0  0  0  0  0  0
   39.0592   40.7033  -13.8655 O   0  0  0  0  0  0  0  0  0  0  0  0
   38.2285   39.5143   -9.9815 C   0  0  2  0  0  0  0  0  0  0  0  0
   37.9279   39.3021   -8.5573 N   0  0  0  0  0  0  0  0  0  0  0  0
   35.2956   40.2125  -13.5244 C   0  0  1  0  0  0  0  0  0  0  0  0
   32.8549   37.8933  -15.9743 C   0  0  1  0  0  0  0  0  0  0  0  0
   39.5515   42.3955  -15.5214 C   0  0  2  0  0  0  0  0  0  0  0  0
   38.2938   43.0761  -15.1809 N   0  0  0  0  0  0  0  0  0  0  0  0
   39.4849   40.3743  -10.1455 C   0  0  0  0  0  0  0  0  0  0  0  0
   35.9727   39.4551  -14.6677 C   0  0  2  0  0  0  0  0  0  0  0  0
   36.0599   40.2913  -15.8231 O   0  0  0  0  0  0  0  0  0  0  0  0
   33.5039   37.0442  -17.0724 C   0  0  2  0  0  0  0  0  0  0  0  0
   33.9333   37.9400  -18.1552 N   0  0  0  0  0  0  0  0  0  0  0  0
   39.3175   41.4900  -16.7332 C   0  0  1  0  0  0  0  0  0  0  0  0
   38.9762   42.2962  -17.8650 O   0  0  0  0  0  0  0  0  0  0  0  0
   39.8252   40.4232  -11.6388 C   0  0  2  0  0  0  0  0  0  0  0  0
   40.9937   41.2925  -11.8432 N   0  0  0  0  0  0  0  0  0  0  0  0
   34.9213   38.3760  -14.9192 C   0  0  2  0  0  0  0  0  0  0  0  0
   33.7637   38.9305  -15.5653 O   0  0  0  0  0  0  0  0  0  0  0  0
   32.5119   36.0206  -17.6399 C   0  0  1  0  0  0  0  0  0  0  0  0
   32.2486   34.9948  -16.6789 O   0  0  0  0  0  0  0  0  0  0  0  0
   40.5868   40.6923  -17.0380 C   0  0  2  0  0  0  0  0  0  0  0  0
   40.3307   39.7690  -18.0995 O   0  0  0  0  0  0  0  0  0  0  0  0
   38.6671   40.9393  -12.5019 C   0  0  2  0  0  0  0  0  0  0  0  0
   34.5711   37.9920  -13.4902 C   0  0  2  0  0  0  0  0  0  0  0  0
   34.7791   39.1682  -12.6786 O   0  0  0  0  0  0  0  0  0  0  0  0
   31.1896   36.6889  -18.0201 C   0  0  2  0  0  0  0  0  0  0  0  0
   31.4141   37.5564  -19.1350 O   0  0  0  0  0  0  0  0  0  0  0  0
   41.0251   39.9299  -15.7867 C   0  0  2  0  0  0  0  0  0  0  0  0
   41.2528   40.8480  -14.6993 O   0  0  0  0  0  0  0  0  0  0  0  0
   37.3228   40.2762  -12.2094 C   0  0  2  0  0  0  0  0  0  0  0  0
   36.2750   41.0219  -12.8504 O   0  0  0  0  0  0  0  0  0  0  0  0
   35.4738   36.8433  -13.0351 C   0  0  0  0  0  0  0  0  0  0  0  0
   35.2908   35.7294  -13.9119 O   0  0  0  0  0  0  0  0  0  0  0  0
   30.6706   37.4846  -16.8195 C   0  0  1  0  0  0  0  0  0  0  0  0
   31.6475   38.4846  -16.4802 O   0  0  0  0  0  0  0  0  0  0  0  0
   42.3207   39.1880  -16.1251 C   0  0  0  0  0  0  0  0  0  0  0  0
   42.6811   38.2766  -15.0294 O   0  0  0  0  0  0  0  0  0  0  0  0
   37.0649   40.2024  -10.6997 C   0  0  1  0  0  0  0  0  0  0  0  0
   35.8462   39.5001  -10.4456 O   0  0  0  0  0  0  0  0  0  0  0  0
   29.3350   38.1691  -17.1123 C   0  0  0  0  0  0  0  0  0  0  0  0
   28.3001   37.1451  -17.3124 N   0  0  0  0  0  0  0  0  0  0  0  0
  1  2  1  6  0  0  0
  1  7  1  0  0  0  0
  1 30  1  0  0  0  0
  3  4  1  1  0  0  0
  3  9  1  0  0  0  0
  3 39  1  0  0  0  0
  5 10  1  0  0  0  0
  5 26  1  0  0  0  0
  5 32  1  1  0  0  0
  6 12  1  0  0  0  0
  6 36  1  0  0  0  0
  6 19  1  6  0  0  0
  7  8  1  1  0  0  0
  7 14  1  0  0  0  0
  9 16  1  0  0  0  0
 10 11  1  6  0  0  0
 10 18  1  0  0  0  0
 12 13  1  6  0  0  0
 12 20  1  0  0  0  0
 14 15  1  6  0  0  0
 14 22  1  0  0  0  0
 16 17  1  1  0  0  0
 16 24  1  0  0  0  0
 18 19  1  1  0  0  0
 18 25  1  0  0  0  0
 20 21  1  1  0  0  0
 20 27  1  0  0  0  0
 22 23  1  6  0  0  0
 22 29  1  0  0  0  0
 24  2  1  6  0  0  0
 24 31  1  0  0  0  0
 25 26  1  0  0  0  0
 25 33  1  1  0  0  0
 27 28  1  6  0  0  0
 27 35  1  0  0  0  0
 29 30  1  0  0  0  0
 29 37  1  6  0  0  0
 31 32  1  6  0  0  0
 31 39  1  0  0  0  0
 33 34  1  0  0  0  0
 35 36  1  0  0  0  0
 35 41  1  6  0  0  0
 37 38  1  0  0  0  0
 39 40  1  6  0  0  0
 41 42  1  0  0  0  0
M  END
>  <CHROM.1>
-119.78519548,-63.65597221,-66.31781205,171.82512014,-73.16391203,-58.98490645
-171.42886359,135.90673594,66.04389604,36.39874862,39.26287171,-14.76678857
-0.35521973,-0.36851057,-1.58981355

>  <Name>
3c44_lig

>  <RI>
0

>  <Rbt.Current_Directory>
/home/itssahil/PROJECTS/Mol_Feturizer/New_Systems/rnas/3c44

>  <Rbt.Executable>
rbdock ($Id: //depot/dev/client3/rdock/2013.1/src/exe/rbdock.cxx#4 $)

>  <Rbt.Library>
libRbt.so (2013.1, Build901 2013/11/27)

>  <Rbt.Parameter_File>
/export/apps/rDock/src/rDock_2013.1_src/data/scripts/dock_solv.prm

>  <Rbt.Receptor>
prm/pocket_docking_5.prm

>  <SCORE>
-9.00809

>  <SCORE.INTER>
-11.9507

>  <SCORE.INTER.CONST>
1

>  <SCORE.INTER.POLAR>
-2.01799

>  <SCORE.INTER.ROT>
9

>  <SCORE.INTER.SOLV>
11.569

>  <SCORE.INTER.VDW>
-14.6968

>  <SCORE.INTER.norm>
-0.28454

>  <SCORE.INTRA>
2.9426

>  <SCORE.INTRA.DIHEDRAL>
0.604945

>  <SCORE.INTRA.DIHEDRAL.0>
14.8538

>  <SCORE.INTRA.POLAR>
0

>  <SCORE.INTRA.POLAR.0>
0

>  <SCORE.INTRA.REPUL>
0

>  <SCORE.INTRA.REPUL.0>
0

>  <SCORE.INTRA.SOLV>
-0.400838

>  <SCORE.INTRA.SOLV.lig_0>
-100.951

>  <SCORE.INTRA.VDW>
2.84055

>  <SCORE.INTRA.VDW.0>
-5.71388

>  <SCORE.INTRA.norm>
0.070062

>  <SCORE.RESTR>
0

>  <SCORE.RESTR.CAVITY>
0

>  <SCORE.RESTR.norm>
0

>  <SCORE.SYSTEM>
0

>  <SCORE.SYSTEM.CONST>
0

>  <SCORE.SYSTEM.DIHEDRAL>
0

>  <SCORE.SYSTEM.SOLV>
0

>  <SCORE.SYSTEM.norm>
0

>  <SCORE.heavy>
42

>  <SCORE.norm>
-0.214478

>  <RMSD>
8.792

$$$$
3c44_lig
 OpenBabel11021811463D
libRbt.so/2013.1/901 2013/11/27
 42 45  0  0  0  0  0  0  0  0999 V2000
   39.1943   42.5067  -12.7502 C   0  0  2  0  0  0  0  0  0  0  0  0
   38.0678   42.8821  -13.5575 O   0  0  0  0  0  0  0  0  0  0  0  0
   35.3031   41.1557  -16.1198 C   0  0  2  0  0  0  0  0  0  0  0  0
   34.4546   40.3742  -17.0326 N   0  0  0  0  0  0  0  0  0  0  0  0
   36.7352   39.3454  -12.6195 C   0  0  1  0  0  0  0  0  0  0  0  0
   38.8588   35.7718  -13.5325 C   0  0  1  0  0  0  0  0  0  0  0  0
   39.4525   43.6020  -11.7102 C   0  0  2  0  0  0  0  0  0  0  0  0
   38.2402   43.8751  -10.9250 N   0  0  0  0  0  0  0  0  0  0  0  0
   36.7180   41.2987  -16.6879 C   0  0  0  0  0  0  0  0  0  0  0  0
   38.2573   39.2987  -12.7611 C   0  0  2  0  0  0  0  0  0  0  0  0
   38.6280   39.5190  -14.1234 O   0  0  0  0  0  0  0  0  0  0  0  0
   39.2160   35.4473  -14.9867 C   0  0  2  0  0  0  0  0  0  0  0  0
   37.9716   35.3918  -15.7662 N   0  0  0  0  0  0  0  0  0  0  0  0
   39.9214   44.8996  -12.3731 C   0  0  1  0  0  0  0  0  0  0  0  0
   40.3000   45.8363  -11.3598 O   0  0  0  0  0  0  0  0  0  0  0  0
   37.4957   42.2475  -15.7697 C   0  0  2  0  0  0  0  0  0  0  0  0
   38.8811   42.3620  -16.2496 N   0  0  0  0  0  0  0  0  0  0  0  0
   38.5027   37.8313  -12.4153 C   0  0  2  0  0  0  0  0  0  0  0  0
   38.0714   36.9746  -13.4854 O   0  0  0  0  0  0  0  0  0  0  0  0
   39.9283   34.0925  -15.0929 C   0  0  1  0  0  0  0  0  0  0  0  0
   41.2460   34.1770  -14.5439 O   0  0  0  0  0  0  0  0  0  0  0  0
   41.1201   44.6155  -13.2801 C   0  0  2  0  0  0  0  0  0  0  0  0
   41.4854   45.8073  -13.9810 O   0  0  0  0  0  0  0  0  0  0  0  0
   37.5149   41.7861  -14.3071 C   0  0  2  0  0  0  0  0  0  0  0  0
   37.5703   37.6674  -11.2254 C   0  0  2  0  0  0  0  0  0  0  0  0
   36.4783   38.5921  -11.4199 O   0  0  0  0  0  0  0  0  0  0  0  0
   39.1540   33.0045  -14.3472 C   0  0  2  0  0  0  0  0  0  0  0  0
   37.9214   32.7629  -15.0316 O   0  0  0  0  0  0  0  0  0  0  0  0
   40.7550   43.5198  -14.2828 C   0  0  2  0  0  0  0  0  0  0  0  0
   40.3515   42.3237  -13.5872 O   0  0  0  0  0  0  0  0  0  0  0  0
   36.1456   41.3966  -13.7541 C   0  0  2  0  0  0  0  0  0  0  0  0
   36.3150   40.7157  -12.5002 O   0  0  0  0  0  0  0  0  0  0  0  0
   38.3312   37.9788   -9.9348 C   0  0  0  0  0  0  0  0  0  0  0  0
   39.7173   37.6886  -10.1277 O   0  0  0  0  0  0  0  0  0  0  0  0
   38.8871   33.4760  -12.9153 C   0  0  1  0  0  0  0  0  0  0  0  0
   38.1071   34.6834  -12.9722 O   0  0  0  0  0  0  0  0  0  0  0  0
   41.9958   43.2369  -15.1336 C   0  0  0  0  0  0  0  0  0  0  0  0
   43.0937   42.7584  -14.2812 O   0  0  0  0  0  0  0  0  0  0  0  0
   35.3916   40.4971  -14.7408 C   0  0  1  0  0  0  0  0  0  0  0  0
   34.0805   40.2182  -14.2444 O   0  0  0  0  0  0  0  0  0  0  0  0
   38.1319   32.4310  -12.0930 C   0  0  0  0  0  0  0  0  0  0  0  0
   36.7888   32.2472  -12.6605 N   0  0  0  0  0  0  0  0  0  0  0  0
  1  2  1  6  0  0  0
  1  7  1  0  0  0  0
  1 30  1  0  0  0  0
  3  4  1  6  0  0  0
  3  9  1  0  0  0  0
  3 39  1  0  0  0  0
  5 10  1  0  0  0  0
  5 26  1  0  0  0  0
  5 32  1  1  0  0  0
  6 12  1  0  0  0  0
  6 36  1  0  0  0  0
  6 19  1  6  0  0  0
  7  8  1  6  0  0  0
  7 14  1  0  0  0  0
  9 16  1  0  0  0  0
 10 11  1  6  0  0  0
 10 18  1  0  0  0  0
 12 13  1  6  0  0  0
 12 20  1  0  0  0  0
 14 15  1  1  0  0  0
 14 22  1  0  0  0  0
 16 17  1  6  0  0  0
 16 24  1  0  0  0  0
 18 19  1  6  0  0  0
 18 25  1  0  0  0  0
 20 21  1  1  0  0  0
 20 27  1  0  0  0  0
 22 23  1  6  0  0  0
 22 29  1  0  0  0  0
 24  2  1  1  0  0  0
 24 31  1  0  0  0  0
 25 26  1  0  0  0  0
 25 33  1  1  0  0  0
 27 28  1  6  0  0  0
 27 35  1  0  0  0  0
 29 30  1  0  0  0  0
 29 37  1  1  0  0  0
 31 32  1  1  0  0  0
 31 39  1  0  0  0  0
 33 34  1  0  0  0  0
 35 36  1  0  0  0  0
 35 41  1  1  0  0  0
 37 38  1  0  0  0  0
 39 40  1  1  0  0  0
 41 42  1  0  0  0  0
M  END
>  <CHROM.1>
-163.87809592,84.36736841,-136.95773251,150.09950773,-125.79709951,-27.90847244
61.34050416,-77.49924737,-65.31587701,38.46769162,39.44024119,-13.56958877
-1.43110063,0.38179019,3.09513889

>  <Name>
3c44_lig

>  <RI>
0

>  <Rbt.Current_Directory>
/home/itssahil/PROJECTS/Mol_Feturizer/New_Systems/rnas/3c44

>  <Rbt.Executable>
rbdock ($Id: //depot/dev/client3/rdock/2013.1/src/exe/rbdock.cxx#4 $)

>  <Rbt.Library>
libRbt.so (2013.1, Build901 2013/11/27)

>  <Rbt.Parameter_File>
/export/apps/rDock/src/rDock_2013.1_src/data/scripts/dock_solv.prm

>  <Rbt.Receptor>
prm/pocket_docking_4.prm

>  <SCORE>
-10.3532

>  <SCORE.INTER>
-20.005

>  <SCORE.INTER.CONST>
1

>  <SCORE.INTER.POLAR>
-2.30629

>  <SCORE.INTER.ROT>
9

>  <SCORE.INTER.SOLV>
16.6534

>  <SCORE.INTER.VDW>
-20.8001

>  <SCORE.INTER.norm>
-0.476308

>  <SCORE.INTRA>
9.62068

>  <SCORE.INTRA.DIHEDRAL>
9.81377

>  <SCORE.INTRA.DIHEDRAL.0>
14.8538

>  <SCORE.INTRA.POLAR>
0

>  <SCORE.INTRA.POLAR.0>
0

>  <SCORE.INTRA.REPUL>
0

>  <SCORE.INTRA.REPUL.0>
0

>  <SCORE.INTRA.SOLV>
1.03113

>  <SCORE.INTRA.SOLV.lig_0>
-100.951

>  <SCORE.INTRA.VDW>
4.19823

>  <SCORE.INTRA.VDW.0>
-5.71388

>  <SCORE.INTRA.norm>
0.229064

>  <SCORE.RESTR>
0.0310917

>  <SCORE.RESTR.CAVITY>
0.0310917

>  <SCORE.RESTR.norm>
0.000740279

>  <SCORE.SYSTEM>
0

>  <SCORE.SYSTEM.CONST>
0

>  <SCORE.SYSTEM.DIHEDRAL>
0

>  <SCORE.SYSTEM.SOLV>
0

>  <SCORE.SYSTEM.norm>
0

>  <SCORE.heavy>
42

>  <SCORE.norm>
-0.246504

>  <RMSD>
8.799

$$$$
3c44_lig
 OpenBabel11021811463D
libRbt.so/2013.1/901 2013/11/27
 42 45  0  0  0  0  0  0  0  0999 V2000
   36.5053   39.2762  -12.0330 C   0  0  2  0  0  0  0  0  0  0  0  0
   37.9108   39.4184  -12.2902 O   0  0  0  0  0  0  0  0  0  0  0  0
   40.5544   36.6197  -13.8292 C   0  0  2  0  0  0  0  0  0  0  0  0
   41.4738   35.5281  -14.1855 N   0  0  0  0  0  0  0  0  0  0  0  0
   36.1512   36.1806  -14.2175 C   0  0  1  0  0  0  0  0  0  0  0  0
   33.8522   34.1978  -17.0518 C   0  0  1  0  0  0  0  0  0  0  0  0
   35.8232   40.6365  -12.2128 C   0  0  2  0  0  0  0  0  0  0  0  0
   36.1172   41.1988  -13.5388 N   0  0  0  0  0  0  0  0  0  0  0  0
   41.0184   37.3197  -12.5485 C   0  0  0  0  0  0  0  0  0  0  0  0
   34.8094   35.6198  -13.7440 C   0  0  2  0  0  0  0  0  0  0  0  0
   34.9915   34.3104  -13.2020 O   0  0  0  0  0  0  0  0  0  0  0  0
   34.3154   32.9102  -17.7413 C   0  0  2  0  0  0  0  0  0  0  0  0
   35.7658   32.9998  -17.9595 N   0  0  0  0  0  0  0  0  0  0  0  0
   36.2710   41.6303  -11.1381 C   0  0  1  0  0  0  0  0  0  0  0  0
   35.4943   42.8268  -11.2497 O   0  0  0  0  0  0  0  0  0  0  0  0
   40.1109   38.5342  -12.3257 C   0  0  2  0  0  0  0  0  0  0  0  0
   40.4875   39.1987  -11.0689 N   0  0  0  0  0  0  0  0  0  0  0  0
   34.0920   35.5013  -15.0872 C   0  0  2  0  0  0  0  0  0  0  0  0
   34.6233   34.4098  -15.8562 O   0  0  0  0  0  0  0  0  0  0  0  0
   33.6205   32.7271  -19.0968 C   0  0  1  0  0  0  0  0  0  0  0  0
   32.2395   32.4062  -18.9105 O   0  0  0  0  0  0  0  0  0  0  0  0
   36.0711   41.0188   -9.7501 C   0  0  2  0  0  0  0  0  0  0  0  0
   36.5918   41.9046   -8.7555 O   0  0  0  0  0  0  0  0  0  0  0  0
   38.6225   38.1687  -12.2658 C   0  0  2  0  0  0  0  0  0  0  0  0
   34.4912   36.8194  -15.7318 C   0  0  2  0  0  0  0  0  0  0  0  0
   35.7838   37.1729  -15.1937 O   0  0  0  0  0  0  0  0  0  0  0  0
   33.7201   33.9982  -19.9417 C   0  0  2  0  0  0  0  0  0  0  0  0
   35.0860   34.1983  -20.3163 O   0  0  0  0  0  0  0  0  0  0  0  0
   36.7969   39.6747   -9.6735 C   0  0  2  0  0  0  0  0  0  0  0  0
   36.3043   38.7848  -10.6946 O   0  0  0  0  0  0  0  0  0  0  0  0
   38.1528   37.2632  -13.4025 C   0  0  2  0  0  0  0  0  0  0  0  0
   36.8446   36.7541  -13.0955 O   0  0  0  0  0  0  0  0  0  0  0  0
   33.4464   37.8867  -15.3990 C   0  0  0  0  0  0  0  0  0  0  0  0
   33.8148   39.1145  -16.0313 O   0  0  0  0  0  0  0  0  0  0  0  0
   33.2122   35.1845  -19.1180 C   0  0  1  0  0  0  0  0  0  0  0  0
   34.0347   35.3085  -17.9444 O   0  0  0  0  0  0  0  0  0  0  0  0
   36.5292   39.0808   -8.2882 C   0  0  0  0  0  0  0  0  0  0  0  0
   36.4988   37.6132   -8.3658 O   0  0  0  0  0  0  0  0  0  0  0  0
   39.1298   36.1012  -13.6173 C   0  0  1  0  0  0  0  0  0  0  0  0
   38.7195   35.3187  -14.7408 O   0  0  0  0  0  0  0  0  0  0  0  0
   33.2591   36.4964  -19.9024 C   0  0  0  0  0  0  0  0  0  0  0  0
   32.6383   37.5611  -19.1021 N   0  0  0  0  0  0  0  0  0  0  0  0
  1  2  1  1  0  0  0
  1  7  1  0  0  0  0
  1 30  1  0  0  0  0
  3  4  1  1  0  0  0
  3  9  1  0  0  0  0
  3 39  1  0  0  0  0
  5 10  1  0  0  0  0
  5 26  1  0  0  0  0
  5 32  1  1  0  0  0
  6 12  1  0  0  0  0
  6 36  1  0  0  0  0
  6 19  1  1  0  0  0
  7  8  1  6  0  0  0
  7 14  1  0  0  0  0
  9 16  1  0  0  0  0
 10 11  1  6  0  0  0
 10 18  1  0  0  0  0
 12 13  1  6  0  0  0
 12 20  1  0  0  0  0
 14 15  1  1  0  0  0
 14 22  1  0  0  0  0
 16 17  1  1  0  0  0
 16 24  1  0  0  0  0
 18 19  1  6  0  0  0
 18 25  1  0  0  0  0
 20 21  1  1  0  0  0
 20 27  1  0  0  0  0
 22 23  1  1  0  0  0
 22 29  1  0  0  0  0
 24  2  1  6  0  0  0
 24 31  1  0  0  0  0
 25 26  1  0  0  0  0
 25 33  1  1  0  0  0
 27 28  1  1  0  0  0
 27 35  1  0  0  0  0
 29 30  1  0  0  0  0
 29 37  1  1  0  0  0
 31 32  1  1  0  0  0
 31 39  1  0  0  0  0
 33 34  1  0  0  0  0
 35 36  1  0  0  0  0
 35 41  1  6  0  0  0
 37 38  1  0  0  0  0
 39 40  1  6  0  0  0
 41 42  1  0  0  0  0
M  END
>  <CHROM.1>
-174.66822882,177.30544801,-171.85630740,173.39279235,-170.92486896,-178.81428668
148.22307523,164.61551901,174.50783595,36.07251499,37.12103377,-14.28806336
1.16345893,-0.46489848,0.77393694

>  <Name>
3c44_lig

>  <RI>
224

>  <Rbt.Current_Directory>
/home/itssahil/PROJECTS/Mol_Feturizer/New_Systems/rnas/3c44

>  <Rbt.Executable>
rbdock ($Id: //depot/dev/client3/rdock/2013.1/src/exe/rbdock.cxx#4 $)

>  <Rbt.Library>
libRbt.so (2013.1, Build901 2013/11/27)

>  <Rbt.Parameter_File>
/export/apps/rDock/src/rDock_2013.1_src/data/scripts/dock_solv.prm

>  <Rbt.Receptor>
prm/pocket_docking_8.prm

>  <SCORE>
-24.8653

>  <SCORE.INTER>
-20.953

>  <SCORE.INTER.CONST>
1

>  <SCORE.INTER.POLAR>
-2.76809

>  <SCORE.INTER.ROT>
9

>  <SCORE.INTER.SOLV>
18.307

>  <SCORE.INTER.VDW>
-20.4441

>  <SCORE.INTER.norm>
-0.498882

>  <SCORE.INTRA>
-3.91225

>  <SCORE.INTRA.DIHEDRAL>
-9.16136

>  <SCORE.INTRA.DIHEDRAL.0>
14.8538

>  <SCORE.INTRA.POLAR>
0

>  <SCORE.INTRA.POLAR.0>
0

>  <SCORE.INTRA.REPUL>
0.00690399

>  <SCORE.INTRA.REPUL.0>
0

>  <SCORE.INTRA.SOLV>
-3.72017

>  <SCORE.INTRA.SOLV.lig_0>
-100.951

>  <SCORE.INTRA.VDW>
2.494

>  <SCORE.INTRA.VDW.0>
-5.71388

>  <SCORE.INTRA.norm>
-0.0931488

>  <SCORE.RESTR>
0

>  <SCORE.RESTR.CAVITY>
0

>  <SCORE.RESTR.norm>
0

>  <SCORE.SYSTEM>
0

>  <SCORE.SYSTEM.CONST>
0

>  <SCORE.SYSTEM.DIHEDRAL>
0

>  <SCORE.SYSTEM.SOLV>
0

>  <SCORE.SYSTEM.norm>
0

>  <SCORE.heavy>
42

>  <SCORE.norm>
-0.592031

>  <RMSD>
8.803

$$$$
3c44_lig
 OpenBabel11021811463D
libRbt.so/2013.1/901 2013/11/27
 42 45  0  0  0  0  0  0  0  0999 V2000
   40.0057   42.4899  -11.2790 C   0  0  2  0  0  0  0  0  0  0  0  0
   39.3625   41.2061  -11.2766 O   0  0  0  0  0  0  0  0  0  0  0  0
   38.1511   38.8587   -8.0810 C   0  0  2  0  0  0  0  0  0  0  0  0
   37.6288   38.2043   -6.8716 N   0  0  0  0  0  0  0  0  0  0  0  0
   36.1711   39.5925  -12.2771 C   0  0  1  0  0  0  0  0  0  0  0  0
   35.6577   37.6329  -15.9137 C   0  0  1  0  0  0  0  0  0  0  0  0
   38.9974   43.5544  -11.7240 C   0  0  2  0  0  0  0  0  0  0  0  0
   37.7880   43.5119  -10.8893 N   0  0  0  0  0  0  0  0  0  0  0  0
   39.0082   40.0725   -7.7104 C   0  0  0  0  0  0  0  0  0  0  0  0
   37.3566   39.5954  -13.2433 C   0  0  2  0  0  0  0  0  0  0  0  0
   37.3208   40.7698  -14.0565 O   0  0  0  0  0  0  0  0  0  0  0  0
   34.8010   38.1476  -17.0752 C   0  0  2  0  0  0  0  0  0  0  0  0
   33.5786   38.7432  -16.5183 N   0  0  0  0  0  0  0  0  0  0  0  0
   38.5996   43.3661  -13.1901 C   0  0  1  0  0  0  0  0  0  0  0  0
   37.7860   44.4684  -13.6029 O   0  0  0  0  0  0  0  0  0  0  0  0
   39.6418   40.6072   -8.9991 C   0  0  2  0  0  0  0  0  0  0  0  0
   40.4255   41.8131   -8.6919 N   0  0  0  0  0  0  0  0  0  0  0  0
   36.9891   38.3888  -14.1046 C   0  0  2  0  0  0  0  0  0  0  0  0
   35.8874   38.6977  -14.9742 O   0  0  0  0  0  0  0  0  0  0  0  0
   34.4092   37.0062  -18.0226 C   0  0  1  0  0  0  0  0  0  0  0  0
   35.5493   36.5543  -18.7580 O   0  0  0  0  0  0  0  0  0  0  0  0
   39.8535   43.3009  -14.0639 C   0  0  2  0  0  0  0  0  0  0  0  0
   39.4830   43.0152  -15.4153 O   0  0  0  0  0  0  0  0  0  0  0  0
   38.6081   40.9503  -10.0790 C   0  0  2  0  0  0  0  0  0  0  0  0
   36.5324   37.4118  -13.0327 C   0  0  2  0  0  0  0  0  0  0  0  0
   35.9997   38.2016  -11.9473 O   0  0  0  0  0  0  0  0  0  0  0  0
   33.8246   35.8244  -17.2471 C   0  0  2  0  0  0  0  0  0  0  0  0
   32.5655   36.2140  -16.6911 O   0  0  0  0  0  0  0  0  0  0  0  0
   40.7844   42.2051  -13.5425 C   0  0  2  0  0  0  0  0  0  0  0  0
   41.1370   42.4641  -12.1692 O   0  0  0  0  0  0  0  0  0  0  0  0
   37.5701   39.8570  -10.3239 C   0  0  2  0  0  0  0  0  0  0  0  0
   36.5008   40.3867  -11.1243 O   0  0  0  0  0  0  0  0  0  0  0  0
   37.7237   36.5714  -12.5679 C   0  0  0  0  0  0  0  0  0  0  0  0
   37.2481   35.4944  -11.7574 O   0  0  0  0  0  0  0  0  0  0  0  0
   34.7998   35.4268  -16.1359 C   0  0  1  0  0  0  0  0  0  0  0  0
   34.9730   36.5535  -15.2584 O   0  0  0  0  0  0  0  0  0  0  0  0
   42.0419   42.2099  -14.4155 C   0  0  0  0  0  0  0  0  0  0  0  0
   41.7225   41.7165  -15.7629 O   0  0  0  0  0  0  0  0  0  0  0  0
   37.0161   39.3204   -8.9987 C   0  0  1  0  0  0  0  0  0  0  0  0
   36.1148   38.2393   -9.2475 O   0  0  0  0  0  0  0  0  0  0  0  0
   34.2963   34.2330  -15.3236 C   0  0  0  0  0  0  0  0  0  0  0  0
   33.0251   34.5888  -14.6779 N   0  0  0  0  0  0  0  0  0  0  0  0
  1  2  1  6  0  0  0
  1  7  1  0  0  0  0
  1 30  1  0  0  0  0
  3  4  1  1  0  0  0
  3  9  1  0  0  0  0
  3 39  1  0  0  0  0
  5 10  1  0  0  0  0
  5 26  1  0  0  0  0
  5 32  1  1  0  0  0
  6 12  1  0  0  0  0
  6 36  1  0  0  0  0
  6 19  1  1  0  0  0
  7  8  1  1  0  0  0
  7 14  1  0  0  0  0
  9 16  1  0  0  0  0
 10 11  1  6  0  0  0
 10 18  1  0  0  0  0
 12 13  1  1  0  0  0
 12 20  1  0  0  0  0
 14 15  1  6  0  0  0
 14 22  1  0  0  0  0
 16 17  1  1  0  0  0
 16 24  1  0  0  0  0
 18 19  1  6  0  0  0
 18 25  1  0  0  0  0
 20 21  1  1  0  0  0
 20 27  1  0  0  0  0
 22 23  1  6  0  0  0
 22 29  1  0  0  0  0
 24  2  1  6  0  0  0
 24 31  1  0  0  0  0
 25 26  1  0  0  0  0
 25 33  1  1  0  0  0
 27 28  1  1  0  0  0
 27 35  1  0  0  0  0
 29 30  1  0  0  0  0
 29 37  1  6  0  0  0
 31 32  1  6  0  0  0
 31 39  1  0  0  0  0
 33 34  1  0  0  0  0
 35 36  1  0  0  0  0
 35 41  1  1  0  0  0
 37 38  1  0  0  0  0
 39 40  1  6  0  0  0
 41 42  1  0  0  0  0
M  END
>  <CHROM.1>
-82.78445055,-65.28179947,-162.59969292,172.00099812,-76.36006448,-169.06763400
-69.85144084,129.17606652,-61.30810803,37.30439920,39.46212632,-13.05728631
-0.43755838,-0.91372868,-1.35394891

>  <Name>
3c44_lig

>  <RI>
224

>  <Rbt.Current_Directory>
/home/itssahil/PROJECTS/Mol_Feturizer/New_Systems/rnas/3c44

>  <Rbt.Executable>
rbdock ($Id: //depot/dev/client3/rdock/2013.1/src/exe/rbdock.cxx#4 $)

>  <Rbt.Library>
libRbt.so (2013.1, Build901 2013/11/27)

>  <Rbt.Parameter_File>
/export/apps/rDock/src/rDock_2013.1_src/data/scripts/dock_solv.prm

>  <Rbt.Receptor>
prm/pocket_docking_8.prm

>  <SCORE>
-14.3154

>  <SCORE.INTER>
-16.4253

>  <SCORE.INTER.CONST>
1

>  <SCORE.INTER.POLAR>
-3.97319

>  <SCORE.INTER.ROT>
9

>  <SCORE.INTER.SOLV>
15.4127

>  <SCORE.INTER.VDW>
-12.4437

>  <SCORE.INTER.norm>
-0.391077

>  <SCORE.INTRA>
2.08895

>  <SCORE.INTRA.DIHEDRAL>
-1.51564

>  <SCORE.INTRA.DIHEDRAL.0>
14.8538

>  <SCORE.INTRA.POLAR>
0

>  <SCORE.INTRA.POLAR.0>
0

>  <SCORE.INTRA.REPUL>
0

>  <SCORE.INTRA.REPUL.0>
0

>  <SCORE.INTRA.SOLV>
2.05096

>  <SCORE.INTRA.SOLV.lig_0>
-100.951

>  <SCORE.INTRA.VDW>
1.82129

>  <SCORE.INTRA.VDW.0>
-5.71388

>  <SCORE.INTRA.norm>
0.049737

>  <SCORE.RESTR>
0.0208927

>  <SCORE.RESTR.CAVITY>
0.0208927

>  <SCORE.RESTR.norm>
0.000497445

>  <SCORE.SYSTEM>
0

>  <SCORE.SYSTEM.CONST>
0

>  <SCORE.SYSTEM.DIHEDRAL>
0

>  <SCORE.SYSTEM.SOLV>
0

>  <SCORE.SYSTEM.norm>
0

>  <SCORE.heavy>
42

>  <SCORE.norm>
-0.340843

>  <RMSD>
8.810

$$$$
3c44_lig
 OpenBabel11021811463D
libRbt.so/2013.1/901 2013/11/27
 42 45  0  0  0  0  0  0  0  0999 V2000
   40.7384   41.4646  -12.7424 C   0  0  2  0  0  0  0  0  0  0  0  0
   39.9388   40.2894  -12.5395 O   0  0  0  0  0  0  0  0  0  0  0  0
   38.7257   38.4380   -9.0337 C   0  0  2  0  0  0  0  0  0  0  0  0
   38.2410   37.9778   -7.7233 N   0  0  0  0  0  0  0  0  0  0  0  0
   36.4887   39.1833  -13.1188 C   0  0  1  0  0  0  0  0  0  0  0  0
   34.1132   37.3428  -16.1042 C   0  0  1  0  0  0  0  0  0  0  0  0
   39.8164   42.6543  -13.0297 C   0  0  2  0  0  0  0  0  0  0  0  0
   38.8146   42.8098  -11.9652 N   0  0  0  0  0  0  0  0  0  0  0  0
   39.7991   39.5169   -8.8636 C   0  0  0  0  0  0  0  0  0  0  0  0
   35.3040   39.9193  -13.7464 C   0  0  2  0  0  0  0  0  0  0  0  0
   34.1167   39.6650  -12.9932 O   0  0  0  0  0  0  0  0  0  0  0  0
   32.7139   37.9342  -16.3038 C   0  0  2  0  0  0  0  0  0  0  0  0
   31.9199   37.6578  -15.0986 N   0  0  0  0  0  0  0  0  0  0  0  0
   39.0983   42.4907  -14.3716 C   0  0  1  0  0  0  0  0  0  0  0  0
   38.3768   43.6899  -14.6692 O   0  0  0  0  0  0  0  0  0  0  0  0
   40.3655   39.8344  -10.2515 C   0  0  2  0  0  0  0  0  0  0  0  0
   41.3588   40.9129  -10.1365 N   0  0  0  0  0  0  0  0  0  0  0  0
   35.2130   39.1730  -15.0759 C   0  0  2  0  0  0  0  0  0  0  0  0
   34.6830   37.8510  -14.8851 O   0  0  0  0  0  0  0  0  0  0  0  0
   32.0135   37.3032  -17.5143 C   0  0  1  0  0  0  0  0  0  0  0  0
   32.6259   37.7416  -18.7299 O   0  0  0  0  0  0  0  0  0  0  0  0
   40.1202   42.2212  -15.4777 C   0  0  2  0  0  0  0  0  0  0  0  0
   39.4391   41.9602  -16.7077 O   0  0  0  0  0  0  0  0  0  0  0  0
   39.2880   40.2589  -11.2571 C   0  0  2  0  0  0  0  0  0  0  0  0
   36.6855   39.0823  -15.4442 C   0  0  2  0  0  0  0  0  0  0  0  0
   37.4250   39.0503  -14.2043 O   0  0  0  0  0  0  0  0  0  0  0  0
   32.0799   35.7762  -17.4534 C   0  0  2  0  0  0  0  0  0  0  0  0
   31.2792   35.3222  -16.3585 O   0  0  0  0  0  0  0  0  0  0  0  0
   40.9789   41.0138  -15.0982 C   0  0  2  0  0  0  0  0  0  0  0  0
   41.6436   41.2517  -13.8417 O   0  0  0  0  0  0  0  0  0  0  0  0
   38.0698   39.3385  -11.2971 C   0  0  2  0  0  0  0  0  0  0  0  0
   37.0172   39.9746  -12.0403 O   0  0  0  0  0  0  0  0  0  0  0  0
   37.0763   40.2988  -16.2862 C   0  0  0  0  0  0  0  0  0  0  0  0
   36.2922   40.3116  -17.4812 O   0  0  0  0  0  0  0  0  0  0  0  0
   33.5376   35.3485  -17.2634 C   0  0  1  0  0  0  0  0  0  0  0  0
   34.0195   35.9113  -16.0304 O   0  0  0  0  0  0  0  0  0  0  0  0
   42.0141   40.8131  -16.2080 C   0  0  0  0  0  0  0  0  0  0  0  0
   42.7639   39.5696  -15.9795 O   0  0  0  0  0  0  0  0  0  0  0  0
   37.5852   39.0087   -9.8804 C   0  0  1  0  0  0  0  0  0  0  0  0
   36.5026   38.0772   -9.9384 O   0  0  0  0  0  0  0  0  0  0  0  0
   33.6929   33.8280  -17.2137 C   0  0  0  0  0  0  0  0  0  0  0  0
   35.1219   33.4892  -17.1622 N   0  0  0  0  0  0  0  0  0  0  0  0
  1  2  1  6  0  0  0
  1  7  1  0  0  0  0
  1 30  1  0  0  0  0
  3  4  1  1  0  0  0
  3  9  1  0  0  0  0
  3 39  1  0  0  0  0
  5 10  1  0  0  0  0
  5 26  1  0  0  0  0
  5 32  1  1  0  0  0
  6 12  1  0  0  0  0
  6 36  1  0  0  0  0
  6 19  1  1  0  0  0
  7  8  1  1  0  0  0
  7 14  1  0  0  0  0
  9 16  1  0  0  0  0
 10 11  1  1  0  0  0
 10 18  1  0  0  0  0
 12 13  1  1  0  0  0
 12 20  1  0  0  0  0
 14 15  1  6  0  0  0
 14 22  1  0  0  0  0
 16 17  1  1  0  0  0
 16 24  1  0  0  0  0
 18 19  1  1  0  0  0
 18 25  1  0  0  0  0
 20 21  1  6  0  0  0
 20 27  1  0  0  0  0
 22 23  1  6  0  0  0
 22 29  1  0  0  0  0
 24  2  1  6  0  0  0
 24 31  1  0  0  0  0
 25 26  1  0  0  0  0
 25 33  1  6  0  0  0
 27 28  1  1  0  0  0
 27 35  1  0  0  0  0
 29 30  1  0  0  0  0
 29 37  1  6  0  0  0
 31 32  1  6  0  0  0
 31 39  1  0  0  0  0
 33 34  1  0  0  0  0
 35 36  1  0  0  0  0
 35 41  1  1  0  0  0
 37 38  1  0  0  0  0
 39 40  1  6  0  0  0
 41 42  1  0  0  0  0
M  END
>  <CHROM.1>
-75.46554858,175.16818124,-79.78515680,157.56731392,-78.26597863,-60.53961189
-173.18236297,126.19687821,174.53516262,37.06661448,39.18611189,-14.11982812
-0.39437053,-0.63712852,-1.38713235

>  <Name>
3c44_lig

>  <RI>
0

>  <Rbt.Current_Directory>
/home/itssahil/PROJECTS/Mol_Feturizer/New_Systems/rnas/3c44

>  <Rbt.Executable>
rbdock ($Id: //depot/dev/client3/rdock/2013.1/src/exe/rbdock.cxx#4 $)

>  <Rbt.Library>
libRbt.so (2013.1, Build901 2013/11/27)

>  <Rbt.Parameter_File>
/export/apps/rDock/src/rDock_2013.1_src/data/scripts/dock_solv.prm

>  <Rbt.Receptor>
prm/pocket_docking_6.prm

>  <SCORE>
-6.75564

>  <SCORE.INTER>
-9.58513

>  <SCORE.INTER.CONST>
1

>  <SCORE.INTER.POLAR>
-2.57843

>  <SCORE.INTER.ROT>
9

>  <SCORE.INTER.SOLV>
19.0634

>  <SCORE.INTER.VDW>
-13.7498

>  <SCORE.INTER.norm>
-0.228217

>  <SCORE.INTRA>
2.82949

>  <SCORE.INTRA.DIHEDRAL>
-0.576903

>  <SCORE.INTRA.DIHEDRAL.0>
14.8538

>  <SCORE.INTRA.POLAR>
0

>  <SCORE.INTRA.POLAR.0>
0

>  <SCORE.INTRA.REPUL>
0.325777

>  <SCORE.INTRA.REPUL.0>
0

>  <SCORE.INTRA.SOLV>
-0.0425313

>  <SCORE.INTRA.SOLV.lig_0>
-100.951

>  <SCORE.INTRA.VDW>
1.51033

>  <SCORE.INTRA.VDW.0>
-5.71388

>  <SCORE.INTRA.norm>
0.0673689

>  <SCORE.RESTR>
0

>  <SCORE.RESTR.CAVITY>
0

>  <SCORE.RESTR.norm>
0

>  <SCORE.SYSTEM>
0

>  <SCORE.SYSTEM.CONST>
0

>  <SCORE.SYSTEM.DIHEDRAL>
0

>  <SCORE.SYSTEM.SOLV>
0

>  <SCORE.SYSTEM.norm>
0

>  <SCORE.heavy>
42

>  <SCORE.norm>
-0.160849

>  <RMSD>
8.811

$$$$
3c44_lig
 OpenBabel11021811463D
libRbt.so/2013.1/901 2013/11/27
 42 45  0  0  0  0  0  0  0  0999 V2000
   38.9408   41.5471  -12.2735 C   0  0  2  0  0  0  0  0  0  0  0  0
   38.4954   41.8816  -10.9500 O   0  0  0  0  0  0  0  0  0  0  0  0
   37.2773   39.4785   -7.7986 C   0  0  2  0  0  0  0  0  0  0  0  0
   36.6813   38.5698   -6.8073 N   0  0  0  0  0  0  0  0  0  0  0  0
   37.7738   38.3868  -11.9019 C   0  0  1  0  0  0  0  0  0  0  0  0
   34.8829   36.9462  -14.5396 C   0  0  1  0  0  0  0  0  0  0  0  0
   40.0817   42.4896  -12.6711 C   0  0  2  0  0  0  0  0  0  0  0  0
   41.1585   42.4599  -11.6708 N   0  0  0  0  0  0  0  0  0  0  0  0
   36.2579   40.5284   -8.2499 C   0  0  0  0  0  0  0  0  0  0  0  0
   38.2430   37.9493  -13.2902 C   0  0  2  0  0  0  0  0  0  0  0  0
   38.2522   39.0691  -14.1778 O   0  0  0  0  0  0  0  0  0  0  0  0
   35.4321   36.2240  -15.7743 C   0  0  2  0  0  0  0  0  0  0  0  0
   35.9686   37.2326  -16.6984 N   0  0  0  0  0  0  0  0  0  0  0  0
   39.5854   43.9290  -12.8285 C   0  0  1  0  0  0  0  0  0  0  0  0
   40.6437   44.7378  -13.3514 O   0  0  0  0  0  0  0  0  0  0  0  0
   36.9864   41.5272   -9.1553 C   0  0  2  0  0  0  0  0  0  0  0  0
   36.0241   42.5186   -9.6592 N   0  0  0  0  0  0  0  0  0  0  0  0
   37.0873   37.0270  -13.6732 C   0  0  2  0  0  0  0  0  0  0  0  0
   35.9058   37.7865  -13.9769 O   0  0  0  0  0  0  0  0  0  0  0  0
   34.3288   35.4333  -16.4897 C   0  0  1  0  0  0  0  0  0  0  0  0
   33.9424   34.2984  -15.7101 O   0  0  0  0  0  0  0  0  0  0  0  0
   38.3933   43.9653  -13.7865 C   0  0  2  0  0  0  0  0  0  0  0  0
   37.8644   45.2926  -13.8452 O   0  0  0  0  0  0  0  0  0  0  0  0
   37.6807   40.8599  -10.3491 C   0  0  2  0  0  0  0  0  0  0  0  0
   36.8872   36.2762  -12.3662 C   0  0  2  0  0  0  0  0  0  0  0  0
   37.2854   37.1711  -11.3051 O   0  0  0  0  0  0  0  0  0  0  0  0
   33.0961   36.3059  -16.7319 C   0  0  2  0  0  0  0  0  0  0  0  0
   33.4260   37.3163  -17.6892 O   0  0  0  0  0  0  0  0  0  0  0  0
   37.3122   43.0014  -13.2952 C   0  0  2  0  0  0  0  0  0  0  0  0
   37.8440   41.6653  -13.1988 O   0  0  0  0  0  0  0  0  0  0  0  0
   38.5304   39.6451   -9.9818 C   0  0  2  0  0  0  0  0  0  0  0  0
   38.8893   38.9360  -11.1789 O   0  0  0  0  0  0  0  0  0  0  0  0
   37.7464   35.0099  -12.3689 C   0  0  0  0  0  0  0  0  0  0  0  0
   37.2779   34.1250  -11.3489 O   0  0  0  0  0  0  0  0  0  0  0  0
   32.6694   36.9434  -15.4070 C   0  0  1  0  0  0  0  0  0  0  0  0
   33.7557   37.7511  -14.9204 O   0  0  0  0  0  0  0  0  0  0  0  0
   36.1645   43.0360  -14.3075 C   0  0  0  0  0  0  0  0  0  0  0  0
   36.5975   42.4443  -15.5816 O   0  0  0  0  0  0  0  0  0  0  0  0
   37.7722   38.7136   -9.0288 C   0  0  1  0  0  0  0  0  0  0  0  0
   38.6161   37.6318   -8.6281 O   0  0  0  0  0  0  0  0  0  0  0  0
   31.4249   37.8187  -15.5601 C   0  0  0  0  0  0  0  0  0  0  0  0
   30.2882   36.9778  -15.9604 N   0  0  0  0  0  0  0  0  0  0  0  0
  1  2  1  1  0  0  0
  1  7  1  0  0  0  0
  1 30  1  0  0  0  0
  3  4  1  1  0  0  0
  3  9  1  0  0  0  0
  3 39  1  0  0  0  0
  5 10  1  0  0  0  0
  5 26  1  0  0  0  0
  5 32  1  1  0  0  0
  6 12  1  0  0  0  0
  6 36  1  0  0  0  0
  6 19  1  6  0  0  0
  7  8  1  1  0  0  0
  7 14  1  0  0  0  0
  9 16  1  0  0  0  0
 10 11  1  6  0  0  0
 10 18  1  0  0  0  0
 12 13  1  6  0  0  0
 12 20  1  0  0  0  0
 14 15  1  6  0  0  0
 14 22  1  0  0  0  0
 16 17  1  6  0  0  0
 16 24  1  0  0  0  0
 18 19  1  1  0  0  0
 18 25  1  0  0  0  0
 20 21  1  1  0  0  0
 20 27  1  0  0  0  0
 22 23  1  1  0  0  0
 22 29  1  0  0  0  0
 24  2  1  1  0  0  0
 24 31  1  0  0  0  0
 25 26  1  0  0  0  0
 25 33  1  6  0  0  0
 27 28  1  6  0  0  0
 27 35  1  0  0  0  0
 29 30  1  0  0  0  0
 29 37  1  6  0  0  0
 31 32  1  6  0  0  0
 31 39  1  0  0  0  0
 33 34  1  0  0  0  0
 35 36  1  0  0  0  0
 35 41  1  6  0  0  0
 37 38  1  0  0  0  0
 39 40  1  1  0  0  0
 41 42  1  0  0  0  0
M  END
>  <CHROM.1>
-164.83401387,167.12087924,-55.82975160,170.85504879,-164.44491537,-163.26961519
67.87956995,-63.33267358,64.00408319,36.75568753,39.30695300,-12.84607034
0.21450521,-0.97849625,-0.68814357

>  <Name>
3c44_lig

>  <RI>
0

>  <Rbt.Current_Directory>
/home/itssahil/PROJECTS/Mol_Feturizer/New_Systems/rnas/3c44

>  <Rbt.Executable>
rbdock ($Id: //depot/dev/client3/rdock/2013.1/src/exe/rbdock.cxx#4 $)

>  <Rbt.Library>
libRbt.so (2013.1, Build901 2013/11/27)

>  <Rbt.Parameter_File>
/export/apps/rDock/src/rDock_2013.1_src/data/scripts/dock_solv.prm

>  <Rbt.Receptor>
prm/pocket_docking_7.prm

>  <SCORE>
-13.4617

>  <SCORE.INTER>
-10.3334

>  <SCORE.INTER.CONST>
1

>  <SCORE.INTER.POLAR>
-1.73031

>  <SCORE.INTER.ROT>
9

>  <SCORE.INTER.SOLV>
17.1541

>  <SCORE.INTER.VDW>
-16.4393

>  <SCORE.INTER.norm>
-0.246034

>  <SCORE.INTRA>
-3.12833

>  <SCORE.INTRA.DIHEDRAL>
-9.6692

>  <SCORE.INTRA.DIHEDRAL.0>
14.8538

>  <SCORE.INTRA.POLAR>
0

>  <SCORE.INTRA.POLAR.0>
0

>  <SCORE.INTRA.REPUL>
0.015652

>  <SCORE.INTRA.REPUL.0>
0

>  <SCORE.INTRA.SOLV>
-2.95155

>  <SCORE.INTRA.SOLV.lig_0>
-100.951

>  <SCORE.INTRA.VDW>
3.10378

>  <SCORE.INTRA.VDW.0>
-5.71388

>  <SCORE.INTRA.norm>
-0.0744841

>  <SCORE.RESTR>
0

>  <SCORE.RESTR.CAVITY>
0

>  <SCORE.RESTR.norm>
0

>  <SCORE.SYSTEM>
0

>  <SCORE.SYSTEM.CONST>
0

>  <SCORE.SYSTEM.DIHEDRAL>
0

>  <SCORE.SYSTEM.SOLV>
0

>  <SCORE.SYSTEM.norm>
0

>  <SCORE.heavy>
42

>  <SCORE.norm>
-0.320518

>  <RMSD>
8.814

$$$$
3c44_lig
 OpenBabel11021811463D
libRbt.so/2013.1/901 2013/11/27
 42 45  0  0  0  0  0  0  0  0999 V2000
   37.9203   42.8344  -12.6971 C   0  0  2  0  0  0  0  0  0  0  0  0
   39.0840   42.1796  -12.1690 O   0  0  0  0  0  0  0  0  0  0  0  0
   41.0413   42.8768  -15.7568 C   0  0  2  0  0  0  0  0  0  0  0  0
   41.9132   43.1451  -16.9108 N   0  0  0  0  0  0  0  0  0  0  0  0
   39.8169   38.9916  -13.2063 C   0  0  1  0  0  0  0  0  0  0  0  0
   37.2933   35.7714  -13.0114 C   0  0  1  0  0  0  0  0  0  0  0  0
   36.8457   42.9023  -11.6069 C   0  0  2  0  0  0  0  0  0  0  0  0
   37.3713   43.5420  -10.3922 N   0  0  0  0  0  0  0  0  0  0  0  0
   41.1487   44.0040  -14.7257 C   0  0  0  0  0  0  0  0  0  0  0  0
   40.4549   37.7162  -12.6539 C   0  0  2  0  0  0  0  0  0  0  0  0
   41.1015   36.9982  -13.7065 O   0  0  0  0  0  0  0  0  0  0  0  0
   37.4733   34.2691  -13.2531 C   0  0  2  0  0  0  0  0  0  0  0  0
   37.8715   34.0715  -14.6536 N   0  0  0  0  0  0  0  0  0  0  0  0
   36.3243   41.5076  -11.2516 C   0  0  1  0  0  0  0  0  0  0  0  0
   35.2191   41.6330  -10.3515 O   0  0  0  0  0  0  0  0  0  0  0  0
   40.1062   43.7389  -13.6344 C   0  0  2  0  0  0  0  0  0  0  0  0
   40.2206   44.7698  -12.5917 N   0  0  0  0  0  0  0  0  0  0  0  0
   39.1955   36.9568  -12.2413 C   0  0  2  0  0  0  0  0  0  0  0  0
   38.4912   36.4693  -13.3951 O   0  0  0  0  0  0  0  0  0  0  0  0
   36.1669   33.5066  -12.9967 C   0  0  1  0  0  0  0  0  0  0  0  0
   35.8692   33.4823  -11.5983 O   0  0  0  0  0  0  0  0  0  0  0  0
   35.8704   40.7842  -12.5208 C   0  0  2  0  0  0  0  0  0  0  0  0
   35.4877   39.4444  -12.1993 O   0  0  0  0  0  0  0  0  0  0  0  0
   40.2557   42.3580  -12.9838 C   0  0  2  0  0  0  0  0  0  0  0  0
   38.3966   38.0766  -11.5933 C   0  0  2  0  0  0  0  0  0  0  0  0
   38.7858   39.3020  -12.2508 O   0  0  0  0  0  0  0  0  0  0  0  0
   34.9968   34.1565  -13.7371 C   0  0  2  0  0  0  0  0  0  0  0  0
   35.1873   33.9841  -15.1443 O   0  0  0  0  0  0  0  0  0  0  0  0
   37.0147   40.7637  -13.5353 C   0  0  2  0  0  0  0  0  0  0  0  0
   37.4325   42.1088  -13.8410 O   0  0  0  0  0  0  0  0  0  0  0  0
   40.3956   41.2077  -13.9787 C   0  0  2  0  0  0  0  0  0  0  0  0
   40.8158   40.0238  -13.2812 O   0  0  0  0  0  0  0  0  0  0  0  0
   38.7145   38.1303  -10.0975 C   0  0  0  0  0  0  0  0  0  0  0  0
   40.0123   38.7010   -9.9156 O   0  0  0  0  0  0  0  0  0  0  0  0
   34.9484   35.6450  -13.3824 C   0  0  1  0  0  0  0  0  0  0  0  0
   36.1871   36.2506  -13.7925 O   0  0  0  0  0  0  0  0  0  0  0  0
   36.4999   40.0750  -14.8019 C   0  0  0  0  0  0  0  0  0  0  0  0
   35.4860   40.9147  -15.4561 O   0  0  0  0  0  0  0  0  0  0  0  0
   41.4064   41.5540  -15.0785 C   0  0  1  0  0  0  0  0  0  0  0  0
   41.4556   40.5029  -16.0459 O   0  0  0  0  0  0  0  0  0  0  0  0
   33.7877   36.3662  -14.0688 C   0  0  0  0  0  0  0  0  0  0  0  0
   33.9834   36.3212  -15.5246 N   0  0  0  0  0  0  0  0  0  0  0  0
  1  2  1  1  0  0  0
  1  7  1  0  0  0  0
  1 30  1  0  0  0  0
  3  4  1  6  0  0  0
  3  9  1  0  0  0  0
  3 39  1  0  0  0  0
  5 10  1  0  0  0  0
  5 26  1  0  0  0  0
  5 32  1  1  0  0  0
  6 12  1  0  0  0  0
  6 36  1  0  0  0  0
  6 19  1  6  0  0  0
  7  8  1  1  0  0  0
  7 14  1  0  0  0  0
  9 16  1  0  0  0  0
 10 11  1  6  0  0  0
 10 18  1  0  0  0  0
 12 13  1  6  0  0  0
 12 20  1  0  0  0  0
 14 15  1  1  0  0  0
 14 22  1  0  0  0  0
 16 17  1  1  0  0  0
 16 24  1  0  0  0  0
 18 19  1  6  0  0  0
 18 25  1  0  0  0  0
 20 21  1  1  0  0  0
 20 27  1  0  0  0  0
 22 23  1  1  0  0  0
 22 29  1  0  0  0  0
 24  2  1  6  0  0  0
 24 31  1  0  0  0  0
 25 26  1  0  0  0  0
 25 33  1  1  0  0  0
 27 28  1  6  0  0  0
 27 35  1  0  0  0  0
 29 30  1  0  0  0  0
 29 37  1  6  0  0  0
 31 32  1  1  0  0  0
 31 39  1  0  0  0  0
 33 34  1  0  0  0  0
 35 36  1  0  0  0  0
 35 41  1  6  0  0  0
 37 38  1  0  0  0  0
 39 40  1  6  0  0  0
 41 42  1  0  0  0  0
M  END
>  <CHROM.1>
-165.30541181,170.71485833,-108.65828429,-179.10145121,31.53032384,74.52570678
68.18241782,110.87045531,-63.63767828,38.03686015,39.21439069,-13.23557672
1.08261937,0.38447320,0.17628561

>  <Name>
3c44_lig

>  <RI>
224

>  <Rbt.Current_Directory>
/home/itssahil/PROJECTS/Mol_Feturizer/New_Systems/rnas/3c44

>  <Rbt.Executable>
rbdock ($Id: //depot/dev/client3/rdock/2013.1/src/exe/rbdock.cxx#4 $)

>  <Rbt.Library>
libRbt.so (2013.1, Build901 2013/11/27)

>  <Rbt.Parameter_File>
/export/apps/rDock/src/rDock_2013.1_src/data/scripts/dock_solv.prm

>  <Rbt.Receptor>
prm/pocket_docking_3.prm

>  <SCORE>
-5.98173

>  <SCORE.INTER>
-12.3833

>  <SCORE.INTER.CONST>
1

>  <SCORE.INTER.POLAR>
-1.61124

>  <SCORE.INTER.ROT>
9

>  <SCORE.INTER.SOLV>
8.97276

>  <SCORE.INTER.VDW>
-15.4756

>  <SCORE.INTER.norm>
-0.29484

>  <SCORE.INTRA>
6.3937

>  <SCORE.INTRA.DIHEDRAL>
4.69199

>  <SCORE.INTRA.DIHEDRAL.0>
14.8538

>  <SCORE.INTRA.POLAR>
0

>  <SCORE.INTRA.POLAR.0>
0

>  <SCORE.INTRA.REPUL>
0.00143844

>  <SCORE.INTRA.REPUL.0>
0

>  <SCORE.INTRA.SOLV>
0.146367

>  <SCORE.INTRA.SOLV.lig_0>
-100.951

>  <SCORE.INTRA.VDW>
3.96733

>  <SCORE.INTRA.VDW.0>
-5.71388

>  <SCORE.INTRA.norm>
0.152231

>  <SCORE.RESTR>
0.00784568

>  <SCORE.RESTR.CAVITY>
0.00784568

>  <SCORE.RESTR.norm>
0.000186802

>  <SCORE.SYSTEM>
0

>  <SCORE.SYSTEM.CONST>
0

>  <SCORE.SYSTEM.DIHEDRAL>
0

>  <SCORE.SYSTEM.SOLV>
0

>  <SCORE.SYSTEM.norm>
0

>  <SCORE.heavy>
42

>  <SCORE.norm>
-0.142422

>  <RMSD>
8.842

$$$$
3c44_lig
 OpenBabel11021811463D
libRbt.so/2013.1/901 2013/11/27
 42 45  0  0  0  0  0  0  0  0999 V2000
   37.5359   41.4598  -11.6334 C   0  0  2  0  0  0  0  0  0  0  0  0
   38.2923   42.2876  -12.5303 O   0  0  0  0  0  0  0  0  0  0  0  0
   39.0825   42.3762  -16.5994 C   0  0  2  0  0  0  0  0  0  0  0  0
   39.3906   42.1954  -18.0264 N   0  0  0  0  0  0  0  0  0  0  0  0
   36.3400   39.8342  -14.5688 C   0  0  1  0  0  0  0  0  0  0  0  0
   36.1538   35.6121  -14.0699 C   0  0  1  0  0  0  0  0  0  0  0  0
   36.3887   42.2834  -11.0388 C   0  0  2  0  0  0  0  0  0  0  0  0
   35.5714   42.8868  -12.1013 N   0  0  0  0  0  0  0  0  0  0  0  0
   40.2092   41.8128  -15.7285 C   0  0  0  0  0  0  0  0  0  0  0  0
   35.2002   39.1382  -13.8234 C   0  0  2  0  0  0  0  0  0  0  0  0
   35.5365   38.9936  -12.4423 O   0  0  0  0  0  0  0  0  0  0  0  0
   34.9707   35.2849  -13.1529 C   0  0  2  0  0  0  0  0  0  0  0  0
   35.2571   35.8288  -11.8182 N   0  0  0  0  0  0  0  0  0  0  0  0
   36.9152   43.3913  -10.1232 C   0  0  1  0  0  0  0  0  0  0  0  0
   35.8119   44.0275   -9.4709 O   0  0  0  0  0  0  0  0  0  0  0  0
   39.8976   42.1729  -14.2720 C   0  0  2  0  0  0  0  0  0  0  0  0
   40.9282   41.5944  -13.3967 N   0  0  0  0  0  0  0  0  0  0  0  0
   35.2576   37.7653  -14.4904 C   0  0  2  0  0  0  0  0  0  0  0  0
   36.4075   37.0278  -14.0445 O   0  0  0  0  0  0  0  0  0  0  0  0
   34.7629   33.7692  -13.0365 C   0  0  1  0  0  0  0  0  0  0  0  0
   34.2578   33.2388  -14.2647 O   0  0  0  0  0  0  0  0  0  0  0  0
   37.8546   42.7947   -9.0735 C   0  0  2  0  0  0  0  0  0  0  0  0
   38.4293   43.8446   -8.2909 O   0  0  0  0  0  0  0  0  0  0  0  0
   38.5214   41.6760  -13.8118 C   0  0  2  0  0  0  0  0  0  0  0  0
   35.4457   38.1710  -15.9437 C   0  0  2  0  0  0  0  0  0  0  0  0
   36.1528   39.4301  -15.9378 O   0  0  0  0  0  0  0  0  0  0  0  0
   36.0744   33.0592  -12.6969 C   0  0  2  0  0  0  0  0  0  0  0  0
   36.4668   33.4227  -11.3703 O   0  0  0  0  0  0  0  0  0  0  0  0
   38.9641   42.0047   -9.7695 C   0  0  2  0  0  0  0  0  0  0  0  0
   38.3949   40.9649  -10.5892 O   0  0  0  0  0  0  0  0  0  0  0  0
   37.3816   42.0057  -14.7735 C   0  0  2  0  0  0  0  0  0  0  0  0
   36.2131   41.2570  -14.4009 O   0  0  0  0  0  0  0  0  0  0  0  0
   34.0778   38.3117  -16.6150 C   0  0  0  0  0  0  0  0  0  0  0  0
   34.2653   38.6218  -17.9976 O   0  0  0  0  0  0  0  0  0  0  0  0
   37.1452   33.4821  -13.7061 C   0  0  1  0  0  0  0  0  0  0  0  0
   37.3193   34.9071  -13.6139 O   0  0  0  0  0  0  0  0  0  0  0  0
   39.8478   41.3888   -8.6817 C   0  0  0  0  0  0  0  0  0  0  0  0
   39.0837   40.3954   -7.9135 O   0  0  0  0  0  0  0  0  0  0  0  0
   37.7731   41.6801  -16.2198 C   0  0  1  0  0  0  0  0  0  0  0  0
   36.7287   42.0785  -17.1105 O   0  0  0  0  0  0  0  0  0  0  0  0
   38.4874   32.7965  -13.4474 C   0  0  0  0  0  0  0  0  0  0  0  0
   39.4455   33.2014  -14.4855 N   0  0  0  0  0  0  0  0  0  0  0  0
  1  2  1  6  0  0  0
  1  7  1  0  0  0  0
  1 30  1  0  0  0  0
  3  4  1  6  0  0  0
  3  9  1  0  0  0  0
  3 39  1  0  0  0  0
  5 10  1  0  0  0  0
  5 26  1  0  0  0  0
  5 32  1  6  0  0  0
  6 12  1  0  0  0  0
  6 36  1  0  0  0  0
  6 19  1  1  0  0  0
  7  8  1  6  0  0  0
  7 14  1  0  0  0  0
  9 16  1  0  0  0  0
 10 11  1  1  0  0  0
 10 18  1  0  0  0  0
 12 13  1  1  0  0  0
 12 20  1  0  0  0  0
 14 15  1  1  0  0  0
 14 22  1  0  0  0  0
 16 17  1  1  0  0  0
 16 24  1  0  0  0  0
 18 19  1  1  0  0  0
 18 25  1  0  0  0  0
 20 21  1  6  0  0  0
 20 27  1  0  0  0  0
 22 23  1  6  0  0  0
 22 29  1  0  0  0  0
 24  2  1  1  0  0  0
 24 31  1  0  0  0  0
 25 26  1  0  0  0  0
 25 33  1  1  0  0  0
 27 28  1  1  0  0  0
 27 35  1  0  0  0  0
 29 30  1  0  0  0  0
 29 37  1  1  0  0  0
 31 32  1  1  0  0  0
 31 39  1  0  0  0  0
 33 34  1  0  0  0  0
 35 36  1  0  0  0  0
 35 41  1  1  0  0  0
 37 38  1  0  0  0  0
 39 40  1  6  0  0  0
 41 42  1  0  0  0  0
M  END
>  <CHROM.1>
-130.54945471,165.82041575,-59.74830954,150.33913785,-146.74639016,-176.88699050
65.59291801,-66.48408205,177.46879382,37.08628162,39.24899957,-13.24351849
-0.28495703,1.32014020,2.14671682

>  <Name>
3c44_lig

>  <RI>
0

>  <Rbt.Current_Directory>
/home/itssahil/PROJECTS/Mol_Feturizer/New_Systems/rnas/3c44

>  <Rbt.Executable>
rbdock ($Id: //depot/dev/client3/rdock/2013.1/src/exe/rbdock.cxx#4 $)

>  <Rbt.Library>
libRbt.so (2013.1, Build901 2013/11/27)

>  <Rbt.Parameter_File>
/export/apps/rDock/src/rDock_2013.1_src/data/scripts/dock_solv.prm

>  <Rbt.Receptor>
prm/pocket_docking_7.prm

>  <SCORE>
-7.82605

>  <SCORE.INTER>
-10.0728

>  <SCORE.INTER.CONST>
1

>  <SCORE.INTER.POLAR>
-1.82668

>  <SCORE.INTER.ROT>
9

>  <SCORE.INTER.SOLV>
19.3484

>  <SCORE.INTER.VDW>
-16.6757

>  <SCORE.INTER.norm>
-0.239829

>  <SCORE.INTRA>
2.24678

>  <SCORE.INTRA.DIHEDRAL>
0.971198

>  <SCORE.INTRA.DIHEDRAL.0>
14.8538

>  <SCORE.INTRA.POLAR>
0

>  <SCORE.INTRA.POLAR.0>
0

>  <SCORE.INTRA.REPUL>
0

>  <SCORE.INTRA.REPUL.0>
0

>  <SCORE.INTRA.SOLV>
-0.787925

>  <SCORE.INTRA.SOLV.lig_0>
-100.951

>  <SCORE.INTRA.VDW>
2.15514

>  <SCORE.INTRA.VDW.0>
-5.71388

>  <SCORE.INTRA.norm>
0.0534947

>  <SCORE.RESTR>
0

>  <SCORE.RESTR.CAVITY>
0

>  <SCORE.RESTR.norm>
0

>  <SCORE.SYSTEM>
0

>  <SCORE.SYSTEM.CONST>
0

>  <SCORE.SYSTEM.DIHEDRAL>
0

>  <SCORE.SYSTEM.SOLV>
0

>  <SCORE.SYSTEM.norm>
0

>  <SCORE.heavy>
42

>  <SCORE.norm>
-0.186335

>  <RMSD>
8.845

$$$$
3c44_lig
 OpenBabel11021811463D
libRbt.so/2013.1/901 2013/11/27
 42 45  0  0  0  0  0  0  0  0999 V2000
   40.0598   43.3695  -15.1001 C   0  0  2  0  0  0  0  0  0  0  0  0
   38.6636   43.6730  -14.9577 O   0  0  0  0  0  0  0  0  0  0  0  0
   39.3459   44.2326  -10.9067 C   0  0  2  0  0  0  0  0  0  0  0  0
   39.4180   44.5622   -9.4749 N   0  0  0  0  0  0  0  0  0  0  0  0
   36.9244   40.9682  -13.3635 C   0  0  1  0  0  0  0  0  0  0  0  0
   36.6617   36.8021  -13.8375 C   0  0  1  0  0  0  0  0  0  0  0  0
   40.3669   43.1060  -16.5780 C   0  0  2  0  0  0  0  0  0  0  0  0
   39.9294   44.2339  -17.4132 N   0  0  0  0  0  0  0  0  0  0  0  0
   39.3832   45.5062  -11.7562 C   0  0  0  0  0  0  0  0  0  0  0  0
   35.6144   40.2652  -13.0046 C   0  0  2  0  0  0  0  0  0  0  0  0
   35.6153   39.9077  -11.6211 O   0  0  0  0  0  0  0  0  0  0  0  0
   35.3563   36.1342  -13.3932 C   0  0  2  0  0  0  0  0  0  0  0  0
   35.2974   36.1671  -11.9254 N   0  0  0  0  0  0  0  0  0  0  0  0
   39.6848   41.8266  -17.0689 C   0  0  1  0  0  0  0  0  0  0  0  0
   40.1260   41.5381  -18.3991 O   0  0  0  0  0  0  0  0  0  0  0  0
   39.4624   45.0838  -13.2270 C   0  0  2  0  0  0  0  0  0  0  0  0
   39.4381   46.2822  -14.0793 N   0  0  0  0  0  0  0  0  0  0  0  0
   35.7662   38.9963  -13.8410 C   0  0  2  0  0  0  0  0  0  0  0  0
   36.7490   38.1194  -13.2665 O   0  0  0  0  0  0  0  0  0  0  0  0
   35.2949   34.6737  -13.8592 C   0  0  1  0  0  0  0  0  0  0  0  0
   35.1176   34.6090  -15.2767 O   0  0  0  0  0  0  0  0  0  0  0  0
   40.0444   40.6601  -16.1468 C   0  0  2  0  0  0  0  0  0  0  0  0
   39.3192   39.4931  -16.5433 O   0  0  0  0  0  0  0  0  0  0  0  0
   38.3170   44.1542  -13.6473 C   0  0  2  0  0  0  0  0  0  0  0  0
   36.3028   39.5817  -15.1377 C   0  0  2  0  0  0  0  0  0  0  0  0
   37.0423   40.7708  -14.7847 O   0  0  0  0  0  0  0  0  0  0  0  0
   36.5762   33.9245  -13.4895 C   0  0  2  0  0  0  0  0  0  0  0  0
   36.6416   33.7951  -12.0665 O   0  0  0  0  0  0  0  0  0  0  0  0
   39.6903   41.0207  -14.7032 C   0  0  2  0  0  0  0  0  0  0  0  0
   40.3892   42.2161  -14.3036 O   0  0  0  0  0  0  0  0  0  0  0  0
   38.0763   42.9851  -12.6945 C   0  0  2  0  0  0  0  0  0  0  0  0
   36.8229   42.3600  -13.0156 O   0  0  0  0  0  0  0  0  0  0  0  0
   35.1349   39.9165  -16.0679 C   0  0  0  0  0  0  0  0  0  0  0  0
   35.6255   40.6615  -17.1847 O   0  0  0  0  0  0  0  0  0  0  0  0
   37.7812   34.7119  -14.0108 C   0  0  1  0  0  0  0  0  0  0  0  0
   37.7763   36.0116  -13.3944 O   0  0  0  0  0  0  0  0  0  0  0  0
   40.1109   39.8470  -13.8150 C   0  0  0  0  0  0  0  0  0  0  0  0
   41.5571   39.6142  -13.9380 O   0  0  0  0  0  0  0  0  0  0  0  0
   38.0665   43.4593  -11.2364 C   0  0  1  0  0  0  0  0  0  0  0  0
   37.9293   42.3394  -10.3589 O   0  0  0  0  0  0  0  0  0  0  0  0
   39.1065   34.0156  -13.6991 C   0  0  0  0  0  0  0  0  0  0  0  0
   40.2029   34.7506  -14.3449 N   0  0  0  0  0  0  0  0  0  0  0  0
  1  2  1  6  0  0  0
  1  7  1  0  0  0  0
  1 30  1  0  0  0  0
  3  4  1  1  0  0  0
  3  9  1  0  0  0  0
  3 39  1  0  0  0  0
  5 10  1  0  0  0  0
  5 26  1  0  0  0  0
  5 32  1  6  0  0  0
  6 12  1  0  0  0  0
  6 36  1  0  0  0  0
  6 19  1  1  0  0  0
  7  8  1  6  0  0  0
  7 14  1  0  0  0  0
  9 16  1  0  0  0  0
 10 11  1  1  0  0  0
 10 18  1  0  0  0  0
 12 13  1  1  0  0  0
 12 20  1  0  0  0  0
 14 15  1  6  0  0  0
 14 22  1  0  0  0  0
 16 17  1  6  0  0  0
 16 24  1  0  0  0  0
 18 19  1  1  0  0  0
 18 25  1  0  0  0  0
 20 21  1  6  0  0  0
 20 27  1  0  0  0  0
 22 23  1  6  0  0  0
 22 29  1  0  0  0  0
 24  2  1  6  0  0  0
 24 31  1  0  0  0  0
 25 26  1  0  0  0  0
 25 33  1  6  0  0  0
 27 28  1  1  0  0  0
 27 35  1  0  0  0  0
 29 30  1  0  0  0  0
 29 37  1  1  0  0  0
 31 32  1  6  0  0  0
 31 39  1  0  0  0  0
 33 34  1  0  0  0  0
 35 36  1  0  0  0  0
 35 41  1  1  0  0  0
 37 38  1  0  0  0  0
 39 40  1  1  0  0  0
 41 42  1  0  0  0  0
M  END
>  <CHROM.1>
-170.15862015,151.94158350,-68.57299495,165.50705533,39.84972574,170.64428526
59.95468729,120.95042722,174.21391639,38.01409899,40.12258822,-13.98657908
-0.91264886,-1.07928555,-2.55272449

>  <Name>
3c44_lig

>  <RI>
0

>  <Rbt.Current_Directory>
/home/itssahil/PROJECTS/Mol_Feturizer/New_Systems/rnas/3c44

>  <Rbt.Executable>
rbdock ($Id: //depot/dev/client3/rdock/2013.1/src/exe/rbdock.cxx#4 $)

>  <Rbt.Library>
libRbt.so (2013.1, Build901 2013/11/27)

>  <Rbt.Parameter_File>
/export/apps/rDock/src/rDock_2013.1_src/data/scripts/dock_solv.prm

>  <Rbt.Receptor>
prm/pocket_docking_4.prm

>  <SCORE>
-8.69428

>  <SCORE.INTER>
-10.9888

>  <SCORE.INTER.CONST>
1

>  <SCORE.INTER.POLAR>
-1.87632

>  <SCORE.INTER.ROT>
9

>  <SCORE.INTER.SOLV>
16.2939

>  <SCORE.INTER.VDW>
-16.1028

>  <SCORE.INTER.norm>
-0.261639

>  <SCORE.INTRA>
2.26951

>  <SCORE.INTRA.DIHEDRAL>
-0.0763589

>  <SCORE.INTRA.DIHEDRAL.0>
14.8538

>  <SCORE.INTRA.POLAR>
0

>  <SCORE.INTRA.POLAR.0>
0

>  <SCORE.INTRA.REPUL>
0

>  <SCORE.INTRA.REPUL.0>
0

>  <SCORE.INTRA.SOLV>
-1.98185

>  <SCORE.INTRA.SOLV.lig_0>
-100.951

>  <SCORE.INTRA.VDW>
3.29861

>  <SCORE.INTRA.VDW.0>
-5.71388

>  <SCORE.INTRA.norm>
0.0540359

>  <SCORE.RESTR>
0.0250476

>  <SCORE.RESTR.CAVITY>
0.0250476

>  <SCORE.RESTR.norm>
0.000596372

>  <SCORE.SYSTEM>
0

>  <SCORE.SYSTEM.CONST>
0

>  <SCORE.SYSTEM.DIHEDRAL>
0

>  <SCORE.SYSTEM.SOLV>
0

>  <SCORE.SYSTEM.norm>
0

>  <SCORE.heavy>
42

>  <SCORE.norm>
-0.207007

>  <RMSD>
8.861

$$$$
3c44_lig
 OpenBabel11021811463D
libRbt.so/2013.1/901 2013/11/27
 42 45  0  0  0  0  0  0  0  0999 V2000
   39.9000   40.7179  -12.8221 C   0  0  2  0  0  0  0  0  0  0  0  0
   38.4783   40.7763  -13.0148 O   0  0  0  0  0  0  0  0  0  0  0  0
   35.8772   40.5649  -16.2364 C   0  0  2  0  0  0  0  0  0  0  0  0
   35.0911   40.6225  -17.4784 N   0  0  0  0  0  0  0  0  0  0  0  0
   39.4861   37.8226  -14.8877 C   0  0  1  0  0  0  0  0  0  0  0  0
   37.9444   34.2191  -13.7937 C   0  0  1  0  0  0  0  0  0  0  0  0
   40.2063   40.8027  -11.3231 C   0  0  2  0  0  0  0  0  0  0  0  0
   39.4761   39.7657  -10.5798 N   0  0  0  0  0  0  0  0  0  0  0  0
   36.1190   41.9730  -15.6850 C   0  0  0  0  0  0  0  0  0  0  0  0
   38.5406   36.8684  -15.6188 C   0  0  2  0  0  0  0  0  0  0  0  0
   37.2517   36.8908  -15.0024 O   0  0  0  0  0  0  0  0  0  0  0  0
   36.7346   34.8781  -13.1231 C   0  0  2  0  0  0  0  0  0  0  0  0
   37.1764   35.4689  -11.8523 N   0  0  0  0  0  0  0  0  0  0  0  0
   39.8384   42.1763  -10.7566 C   0  0  1  0  0  0  0  0  0  0  0  0
   40.2861   42.2619   -9.4003 O   0  0  0  0  0  0  0  0  0  0  0  0
   36.8020   41.8288  -14.3209 C   0  0  2  0  0  0  0  0  0  0  0  0
   37.1066   43.1645  -13.7858 N   0  0  0  0  0  0  0  0  0  0  0  0
   39.2177   35.5380  -15.2956 C   0  0  2  0  0  0  0  0  0  0  0  0
   39.0087   35.1785  -13.9201 O   0  0  0  0  0  0  0  0  0  0  0  0
   35.6327   33.8499  -12.8353 C   0  0  1  0  0  0  0  0  0  0  0  0
   35.0181   33.4225  -14.0537 O   0  0  0  0  0  0  0  0  0  0  0  0
   40.5056   43.2753  -11.5855 C   0  0  2  0  0  0  0  0  0  0  0  0
   40.0722   44.5568  -11.1219 O   0  0  0  0  0  0  0  0  0  0  0  0
   38.0990   41.0123  -14.3820 C   0  0  2  0  0  0  0  0  0  0  0  0
   40.6765   35.9108  -15.5078 C   0  0  2  0  0  0  0  0  0  0  0  0
   40.7966   37.3175  -15.2041 O   0  0  0  0  0  0  0  0  0  0  0  0
   36.1985   32.6252  -12.1143 C   0  0  2  0  0  0  0  0  0  0  0  0
   36.6138   33.0127  -10.8015 O   0  0  0  0  0  0  0  0  0  0  0  0
   40.1290   43.1059  -13.0581 C   0  0  2  0  0  0  0  0  0  0  0  0
   40.5301   41.8036  -13.5273 O   0  0  0  0  0  0  0  0  0  0  0  0
   37.9736   39.6913  -15.1381 C   0  0  2  0  0  0  0  0  0  0  0  0
   39.2848   39.1575  -15.3839 O   0  0  0  0  0  0  0  0  0  0  0  0
   41.0697   35.6262  -16.9590 C   0  0  0  0  0  0  0  0  0  0  0  0
   40.8932   34.2333  -17.2264 O   0  0  0  0  0  0  0  0  0  0  0  0
   37.3868   32.0825  -12.9126 C   0  0  1  0  0  0  0  0  0  0  0  0
   38.3884   33.1118  -12.9935 O   0  0  0  0  0  0  0  0  0  0  0  0
   40.8559   44.1948  -13.8515 C   0  0  0  0  0  0  0  0  0  0  0  0
   40.3410   45.5200  -13.4778 O   0  0  0  0  0  0  0  0  0  0  0  0
   37.2308   39.8875  -16.4650 C   0  0  1  0  0  0  0  0  0  0  0  0
   37.0462   38.6270  -17.1131 O   0  0  0  0  0  0  0  0  0  0  0  0
   37.9987   30.8389  -12.2665 C   0  0  0  0  0  0  0  0  0  0  0  0
   39.0038   30.2673  -13.1735 N   0  0  0  0  0  0  0  0  0  0  0  0
  1  2  1  1  0  0  0
  1  7  1  0  0  0  0
  1 30  1  0  0  0  0
  3  4  1  6  0  0  0
  3  9  1  0  0  0  0
  3 39  1  0  0  0  0
  5 10  1  0  0  0  0
  5 26  1  0  0  0  0
  5 32  1  6  0  0  0
  6 12  1  0  0  0  0
  6 36  1  0  0  0  0
  6 19  1  1  0  0  0
  7  8  1  1  0  0  0
  7 14  1  0  0  0  0
  9 16  1  0  0  0  0
 10 11  1  1  0  0  0
 10 18  1  0  0  0  0
 12 13  1  1  0  0  0
 12 20  1  0  0  0  0
 14 15  1  1  0  0  0
 14 22  1  0  0  0  0
 16 17  1  6  0  0  0
 16 24  1  0  0  0  0
 18 19  1  1  0  0  0
 18 25  1  0  0  0  0
 20 21  1  6  0  0  0
 20 27  1  0  0  0  0
 22 23  1  1  0  0  0
 22 29  1  0  0  0  0
 24  2  1  1  0  0  0
 24 31  1  0  0  0  0
 25 26  1  0  0  0  0
 25 33  1  6  0  0  0
 27 28  1  1  0  0  0
 27 35  1  0  0  0  0
 29 30  1  0  0  0  0
 29 37  1  6  0  0  0
 31 32  1  6  0  0  0
 31 39  1  0  0  0  0
 33 34  1  0  0  0  0
 35 36  1  0  0  0  0
 35 41  1  1  0  0  0
 37 38  1  0  0  0  0
 39 40  1  1  0  0  0
 41 42  1  0  0  0  0
M  END
>  <CHROM.1>
166.55047826,63.33644743,-110.35315464,99.49731326,-147.55565785,-60.38727014
-66.11537239,124.25226499,172.22156891,38.50520329,38.20766391,-13.80748655
-1.08178300,1.22488803,2.72895243

>  <Name>
3c44_lig

>  <RI>
0

>  <Rbt.Current_Directory>
/home/itssahil/PROJECTS/Mol_Feturizer/New_Systems/rnas/3c44

>  <Rbt.Executable>
rbdock ($Id: //depot/dev/client3/rdock/2013.1/src/exe/rbdock.cxx#4 $)

>  <Rbt.Library>
libRbt.so (2013.1, Build901 2013/11/27)

>  <Rbt.Parameter_File>
/export/apps/rDock/src/rDock_2013.1_src/data/scripts/dock_solv.prm

>  <Rbt.Receptor>
prm/pocket_docking_4.prm

>  <SCORE>
-2.9915

>  <SCORE.INTER>
-9.77841

>  <SCORE.INTER.CONST>
1

>  <SCORE.INTER.POLAR>
-1.26598

>  <SCORE.INTER.ROT>
9

>  <SCORE.INTER.SOLV>
17.1353

>  <SCORE.INTER.VDW>
-17.6108

>  <SCORE.INTER.norm>
-0.232819

>  <SCORE.INTRA>
6.41676

>  <SCORE.INTRA.DIHEDRAL>
9.58807

>  <SCORE.INTRA.DIHEDRAL.0>
14.8538

>  <SCORE.INTRA.POLAR>
0

>  <SCORE.INTRA.POLAR.0>
0

>  <SCORE.INTRA.REPUL>
0

>  <SCORE.INTRA.REPUL.0>
0

>  <SCORE.INTRA.SOLV>
-1.63136

>  <SCORE.INTRA.SOLV.lig_0>
-100.951

>  <SCORE.INTRA.VDW>
2.43841

>  <SCORE.INTRA.VDW.0>
-5.71388

>  <SCORE.INTRA.norm>
0.15278

>  <SCORE.RESTR>
0.370159

>  <SCORE.RESTR.CAVITY>
0.370159

>  <SCORE.RESTR.norm>
0.0088133

>  <SCORE.SYSTEM>
0

>  <SCORE.SYSTEM.CONST>
0

>  <SCORE.SYSTEM.DIHEDRAL>
0

>  <SCORE.SYSTEM.SOLV>
0

>  <SCORE.SYSTEM.norm>
0

>  <SCORE.heavy>
42

>  <SCORE.norm>
-0.0712262

>  <RMSD>
8.861

$$$$
3c44_lig
 OpenBabel11021811463D
libRbt.so/2013.1/901 2013/11/27
 42 45  0  0  0  0  0  0  0  0999 V2000
   40.4492   41.9425  -13.1094 C   0  0  2  0  0  0  0  0  0  0  0  0
   39.6009   42.1064  -14.2562 O   0  0  0  0  0  0  0  0  0  0  0  0
   40.6827   46.1088  -14.2457 C   0  0  2  0  0  0  0  0  0  0  0  0
   41.0043   47.5300  -14.4474 N   0  0  0  0  0  0  0  0  0  0  0  0
   37.0476   42.7835  -14.0712 C   0  0  1  0  0  0  0  0  0  0  0  0
   35.1863   39.0898  -13.2315 C   0  0  1  0  0  0  0  0  0  0  0  0
   40.4442   40.4690  -12.6892 C   0  0  2  0  0  0  0  0  0  0  0  0
   40.8166   39.6015  -13.8161 N   0  0  0  0  0  0  0  0  0  0  0  0
   41.4105   45.2394  -15.2750 C   0  0  0  0  0  0  0  0  0  0  0  0
   35.5259   42.7083  -13.9375 C   0  0  2  0  0  0  0  0  0  0  0  0
   35.1419   42.9559  -12.5837 O   0  0  0  0  0  0  0  0  0  0  0  0
   36.2778   38.0792  -13.5992 C   0  0  2  0  0  0  0  0  0  0  0  0
   36.9326   38.5356  -14.8329 N   0  0  0  0  0  0  0  0  0  0  0  0
   39.0704   40.0443  -12.1645 C   0  0  1  0  0  0  0  0  0  0  0  0
   39.1565   38.7161  -11.6395 O   0  0  0  0  0  0  0  0  0  0  0  0
   41.1559   43.7730  -14.9106 C   0  0  2  0  0  0  0  0  0  0  0  0
   41.7899   42.9051  -15.9145 N   0  0  0  0  0  0  0  0  0  0  0  0
   35.3137   41.2276  -14.2465 C   0  0  2  0  0  0  0  0  0  0  0  0
   35.7559   40.4082  -13.1518 O   0  0  0  0  0  0  0  0  0  0  0  0
   35.6836   36.6853  -13.8399 C   0  0  1  0  0  0  0  0  0  0  0  0
   35.2420   36.1112  -12.6069 O   0  0  0  0  0  0  0  0  0  0  0  0
   38.6176   41.0019  -11.0607 C   0  0  2  0  0  0  0  0  0  0  0  0
   37.2890   40.6681  -10.6504 O   0  0  0  0  0  0  0  0  0  0  0  0
   39.6644   43.4253  -14.8266 C   0  0  2  0  0  0  0  0  0  0  0  0
   36.2570   41.0527  -15.4261 C   0  0  2  0  0  0  0  0  0  0  0  0
   37.3281   42.0049  -15.2493 O   0  0  0  0  0  0  0  0  0  0  0  0
   34.4975   36.7523  -14.8034 C   0  0  2  0  0  0  0  0  0  0  0  0
   34.9765   37.1152  -16.1015 O   0  0  0  0  0  0  0  0  0  0  0  0
   38.6493   42.4385  -11.5845 C   0  0  2  0  0  0  0  0  0  0  0  0
   39.9769   42.7748  -12.0336 O   0  0  0  0  0  0  0  0  0  0  0  0
   38.8372   44.4066  -13.9988 C   0  0  2  0  0  0  0  0  0  0  0  0
   37.4398   44.1588  -14.2237 O   0  0  0  0  0  0  0  0  0  0  0  0
   35.4982   41.3144  -16.7289 C   0  0  0  0  0  0  0  0  0  0  0  0
   34.2400   40.6378  -16.6810 O   0  0  0  0  0  0  0  0  0  0  0  0
   33.4986   37.7936  -14.2917 C   0  0  1  0  0  0  0  0  0  0  0  0
   34.1602   39.0697  -14.2367 O   0  0  0  0  0  0  0  0  0  0  0  0
   38.2364   43.3611  -10.4348 C   0  0  0  0  0  0  0  0  0  0  0  0
   38.3594   44.7668  -10.8469 O   0  0  0  0  0  0  0  0  0  0  0  0
   39.1776   45.8560  -14.3653 C   0  0  1  0  0  0  0  0  0  0  0  0
   38.4594   46.7561  -13.5185 O   0  0  0  0  0  0  0  0  0  0  0  0
   32.2679   37.9067  -15.1922 C   0  0  0  0  0  0  0  0  0  0  0  0
   32.6773   38.4135  -16.5094 N   0  0  0  0  0  0  0  0  0  0  0  0
  1  2  1  6  0  0  0
  1  7  1  0  0  0  0
  1 30  1  0  0  0  0
  3  4  1  6  0  0  0
  3  9  1  0  0  0  0
  3 39  1  0  0  0  0
  5 10  1  0  0  0  0
  5 26  1  0  0  0  0
  5 32  1  6  0  0  0
  6 12  1  0  0  0  0
  6 36  1  0  0  0  0
  6 19  1  6  0  0  0
  7  8  1  6  0  0  0
  7 14  1  0  0  0  0
  9 16  1  0  0  0  0
 10 11  1  1  0  0  0
 10 18  1  0  0  0  0
 12 13  1  6  0  0  0
 12 20  1  0  0  0  0
 14 15  1  1  0  0  0
 14 22  1  0  0  0  0
 16 17  1  6  0  0  0
 16 24  1  0  0  0  0
 18 19  1  1  0  0  0
 18 25  1  0  0  0  0
 20 21  1  1  0  0  0
 20 27  1  0  0  0  0
 22 23  1  6  0  0  0
 22 29  1  0  0  0  0
 24  2  1  1  0  0  0
 24 31  1  0  0  0  0
 25 26  1  0  0  0  0
 25 33  1  6  0  0  0
 27 28  1  6  0  0  0
 27 35  1  0  0  0  0
 29 30  1  0  0  0  0
 29 37  1  1  0  0  0
 31 32  1  6  0  0  0
 31 39  1  0  0  0  0
 33 34  1  0  0  0  0
 35 36  1  0  0  0  0
 35 41  1  6  0  0  0
 37 38  1  0  0  0  0
 39 40  1  1  0  0  0
 41 42  1  0  0  0  0
M  END
>  <CHROM.1>
-172.91548015,163.99932286,109.40123828,161.47573141,46.11469057,-45.31282759
175.17608069,50.53013046,-64.85075308,37.43959407,41.39470845,-13.82560696
-0.70604001,0.59319768,2.69363287

>  <Name>
3c44_lig

>  <RI>
0

>  <Rbt.Current_Directory>
/home/itssahil/PROJECTS/Mol_Feturizer/New_Systems/rnas/3c44

>  <Rbt.Executable>
rbdock ($Id: //depot/dev/client3/rdock/2013.1/src/exe/rbdock.cxx#4 $)

>  <Rbt.Library>
libRbt.so (2013.1, Build901 2013/11/27)

>  <Rbt.Parameter_File>
/export/apps/rDock/src/rDock_2013.1_src/data/scripts/dock_solv.prm

>  <Rbt.Receptor>
prm/pocket_docking_4.prm

>  <SCORE>
-4.71073

>  <SCORE.INTER>
-12.2055

>  <SCORE.INTER.CONST>
1

>  <SCORE.INTER.POLAR>
-1.03241

>  <SCORE.INTER.ROT>
9

>  <SCORE.INTER.SOLV>
10.902

>  <SCORE.INTER.VDW>
-17.9296

>  <SCORE.INTER.norm>
-0.290608

>  <SCORE.INTRA>
7.49478

>  <SCORE.INTRA.DIHEDRAL>
-2.63111

>  <SCORE.INTRA.DIHEDRAL.0>
14.8538

>  <SCORE.INTRA.POLAR>
0

>  <SCORE.INTRA.POLAR.0>
0

>  <SCORE.INTRA.REPUL>
0

>  <SCORE.INTRA.REPUL.0>
0

>  <SCORE.INTRA.SOLV>
6.14298

>  <SCORE.INTRA.SOLV.lig_0>
-100.951

>  <SCORE.INTRA.VDW>
5.73885

>  <SCORE.INTRA.VDW.0>
-5.71388

>  <SCORE.INTRA.norm>
0.178447

>  <SCORE.RESTR>
0

>  <SCORE.RESTR.CAVITY>
0

>  <SCORE.RESTR.norm>
0

>  <SCORE.SYSTEM>
0

>  <SCORE.SYSTEM.CONST>
0

>  <SCORE.SYSTEM.DIHEDRAL>
0

>  <SCORE.SYSTEM.SOLV>
0

>  <SCORE.SYSTEM.norm>
0

>  <SCORE.heavy>
42

>  <SCORE.norm>
-0.11216

>  <RMSD>
8.894

$$$$
3c44_lig
 OpenBabel11021811463D
libRbt.so/2013.1/901 2013/11/27
 42 45  0  0  0  0  0  0  0  0999 V2000
   38.2174   37.5173  -16.0115 C   0  0  2  0  0  0  0  0  0  0  0  0
   38.1912   37.7103  -14.5889 O   0  0  0  0  0  0  0  0  0  0  0  0
   35.7116   40.0759  -12.2554 C   0  0  2  0  0  0  0  0  0  0  0  0
   34.9282   41.0821  -11.5221 N   0  0  0  0  0  0  0  0  0  0  0  0
   34.6523   38.5049  -16.3647 C   0  0  1  0  0  0  0  0  0  0  0  0
   30.9893   37.5819  -18.2637 C   0  0  1  0  0  0  0  0  0  0  0  0
   38.9200   36.1919  -16.3242 C   0  0  2  0  0  0  0  0  0  0  0  0
   38.2886   35.0803  -15.5986 N   0  0  0  0  0  0  0  0  0  0  0  0
   37.2119   40.3118  -12.0587 C   0  0  0  0  0  0  0  0  0  0  0  0
   34.3535   39.0325  -17.7688 C   0  0  2  0  0  0  0  0  0  0  0  0
   33.7197   40.3104  -17.6855 O   0  0  0  0  0  0  0  0  0  0  0  0
   29.6733   37.8052  -17.5113 C   0  0  2  0  0  0  0  0  0  0  0  0
   29.8422   37.3237  -16.1333 N   0  0  0  0  0  0  0  0  0  0  0  0
   40.4050   36.2489  -15.9572 C   0  0  1  0  0  0  0  0  0  0  0  0
   41.0486   35.0542  -16.4108 O   0  0  0  0  0  0  0  0  0  0  0  0
   37.9575   39.1452  -12.7153 C   0  0  2  0  0  0  0  0  0  0  0  0
   39.4067   39.3678  -12.6003 N   0  0  0  0  0  0  0  0  0  0  0  0
   33.3216   37.9995  -18.2172 C   0  0  2  0  0  0  0  0  0  0  0  0
   32.0687   38.2022  -17.5432 O   0  0  0  0  0  0  0  0  0  0  0  0
   28.5218   37.0331  -18.1685 C   0  0  1  0  0  0  0  0  0  0  0  0
   28.1751   37.6260  -19.4228 O   0  0  0  0  0  0  0  0  0  0  0  0
   41.0572   37.4639  -16.6195 C   0  0  2  0  0  0  0  0  0  0  0  0
   42.4155   37.5756  -16.1866 O   0  0  0  0  0  0  0  0  0  0  0  0
   37.6008   38.9616  -14.1957 C   0  0  2  0  0  0  0  0  0  0  0  0
   33.9708   36.7213  -17.7104 C   0  0  2  0  0  0  0  0  0  0  0  0
   34.7455   37.0797  -16.5456 O   0  0  0  0  0  0  0  0  0  0  0  0
   28.9046   35.5712  -18.4050 C   0  0  2  0  0  0  0  0  0  0  0  0
   29.0359   34.9174  -17.1396 O   0  0  0  0  0  0  0  0  0  0  0  0
   40.2888   38.7297  -16.2366 C   0  0  2  0  0  0  0  0  0  0  0  0
   38.9092   38.6141  -16.6372 O   0  0  0  0  0  0  0  0  0  0  0  0
   36.1010   38.9595  -14.4839 C   0  0  2  0  0  0  0  0  0  0  0  0
   35.8885   39.0748  -15.9004 O   0  0  0  0  0  0  0  0  0  0  0  0
   34.8639   36.1341  -18.8054 C   0  0  0  0  0  0  0  0  0  0  0  0
   34.0544   35.7793  -19.9286 O   0  0  0  0  0  0  0  0  0  0  0  0
   30.2282   35.5212  -19.1727 C   0  0  1  0  0  0  0  0  0  0  0  0
   31.2378   36.1720  -18.3812 O   0  0  0  0  0  0  0  0  0  0  0  0
   40.9465   39.9084  -16.9587 C   0  0  0  0  0  0  0  0  0  0  0  0
   42.2586   40.1969  -16.3620 O   0  0  0  0  0  0  0  0  0  0  0  0
   35.4008   40.1118  -13.7539 C   0  0  1  0  0  0  0  0  0  0  0  0
   33.9890   40.0383  -13.9648 O   0  0  0  0  0  0  0  0  0  0  0  0
   30.6718   34.0880  -19.4689 C   0  0  0  0  0  0  0  0  0  0  0  0
   29.7619   33.4948  -20.4587 N   0  0  0  0  0  0  0  0  0  0  0  0
  1  2  1  1  0  0  0
  1  7  1  0  0  0  0
  1 30  1  0  0  0  0
  3  4  1  1  0  0  0
  3  9  1  0  0  0  0
  3 39  1  0  0  0  0
  5 10  1  0  0  0  0
  5 26  1  0  0  0  0
  5 32  1  6  0  0  0
  6 12  1  0  0  0  0
  6 36  1  0  0  0  0
  6 19  1  1  0  0  0
  7  8  1  1  0  0  0
  7 14  1  0  0  0  0
  9 16  1  0  0  0  0
 10 11  1  1  0  0  0
 10 18  1  0  0  0  0
 12 13  1  1  0  0  0
 12 20  1  0  0  0  0
 14 15  1  6  0  0  0
 14 22  1  0  0  0  0
 16 17  1  6  0  0  0
 16 24  1  0  0  0  0
 18 19  1  1  0  0  0
 18 25  1  0  0  0  0
 20 21  1  6  0  0  0
 20 27  1  0  0  0  0
 22 23  1  1  0  0  0
 22 29  1  0  0  0  0
 24  2  1  1  0  0  0
 24 31  1  0  0  0  0
 25 26  1  0  0  0  0
 25 33  1  6  0  0  0
 27 28  1  1  0  0  0
 27 35  1  0  0  0  0
 29 30  1  0  0  0  0
 29 37  1  6  0  0  0
 31 32  1  6  0  0  0
 31 39  1  0  0  0  0
 33 34  1  0  0  0  0
 35 36  1  0  0  0  0
 35 41  1  1  0  0  0
 37 38  1  0  0  0  0
 39 40  1  1  0  0  0
 41 42  1  0  0  0  0
M  END
>  <CHROM.1>
177.42901874,163.79308524,179.43373746,159.67740028,-166.78147027,-63.03379397
-71.19916776,153.46116147,69.29359350,35.20316166,37.71860979,-16.46454226
-0.38572399,0.06221532,-2.29670256

>  <Name>
3c44_lig

>  <RI>
0

>  <Rbt.Current_Directory>
/home/itssahil/PROJECTS/Mol_Feturizer/New_Systems/rnas/3c44

>  <Rbt.Executable>
rbdock ($Id: //depot/dev/client3/rdock/2013.1/src/exe/rbdock.cxx#4 $)

>  <Rbt.Library>
libRbt.so (2013.1, Build901 2013/11/27)

>  <Rbt.Parameter_File>
/export/apps/rDock/src/rDock_2013.1_src/data/scripts/dock_solv.prm

>  <Rbt.Receptor>
prm/pocket_docking_7.prm

>  <SCORE>
-10.653

>  <SCORE.INTER>
-6.75743

>  <SCORE.INTER.CONST>
1

>  <SCORE.INTER.POLAR>
-1.81502

>  <SCORE.INTER.ROT>
9

>  <SCORE.INTER.SOLV>
13.9635

>  <SCORE.INTER.VDW>
-12.7094

>  <SCORE.INTER.norm>
-0.160891

>  <SCORE.INTRA>
-3.89553

>  <SCORE.INTRA.DIHEDRAL>
-6.89906

>  <SCORE.INTRA.DIHEDRAL.0>
14.8538

>  <SCORE.INTRA.POLAR>
0

>  <SCORE.INTRA.POLAR.0>
0

>  <SCORE.INTRA.REPUL>
0

>  <SCORE.INTRA.REPUL.0>
0

>  <SCORE.INTRA.SOLV>
-4.18936

>  <SCORE.INTRA.SOLV.lig_0>
-100.951

>  <SCORE.INTRA.VDW>
1.64868

>  <SCORE.INTRA.VDW.0>
-5.71388

>  <SCORE.INTRA.norm>
-0.0927507

>  <SCORE.RESTR>
0

>  <SCORE.RESTR.CAVITY>
0

>  <SCORE.RESTR.norm>
0

>  <SCORE.SYSTEM>
0

>  <SCORE.SYSTEM.CONST>
0

>  <SCORE.SYSTEM.DIHEDRAL>
0

>  <SCORE.SYSTEM.SOLV>
0

>  <SCORE.SYSTEM.norm>
0

>  <SCORE.heavy>
42

>  <SCORE.norm>
-0.253642

>  <RMSD>
8.900

$$$$
3c44_lig
 OpenBabel11021811463D
libRbt.so/2013.1/901 2013/11/27
 42 45  0  0  0  0  0  0  0  0999 V2000
   39.0328   43.1785   -9.9548 C   0  0  2  0  0  0  0  0  0  0  0  0
   39.4641   41.9348  -10.5284 O   0  0  0  0  0  0  0  0  0  0  0  0
   40.6821   43.9927  -13.9152 C   0  0  2  0  0  0  0  0  0  0  0  0
   41.1290   44.5299  -15.2097 N   0  0  0  0  0  0  0  0  0  0  0  0
   37.5338   41.2323  -13.8527 C   0  0  1  0  0  0  0  0  0  0  0  0
   37.8316   38.2080  -16.6291 C   0  0  1  0  0  0  0  0  0  0  0  0
   39.2514   43.1335   -8.4389 C   0  0  2  0  0  0  0  0  0  0  0  0
   40.6473   42.7999   -8.1205 N   0  0  0  0  0  0  0  0  0  0  0  0
   41.6801   42.9584  -13.3867 C   0  0  0  0  0  0  0  0  0  0  0  0
   37.9996   39.8836  -13.3022 C   0  0  2  0  0  0  0  0  0  0  0  0
   39.4274   39.8312  -13.2824 O   0  0  0  0  0  0  0  0  0  0  0  0
   39.0345   37.6665  -17.4085 C   0  0  2  0  0  0  0  0  0  0  0  0
   39.8223   38.8083  -17.8931 N   0  0  0  0  0  0  0  0  0  0  0  0
   38.3287   42.1094   -7.7735 C   0  0  1  0  0  0  0  0  0  0  0  0
   38.4543   42.2154   -6.3521 O   0  0  0  0  0  0  0  0  0  0  0  0
   41.2358   42.5603  -11.9752 C   0  0  2  0  0  0  0  0  0  0  0  0
   42.1373   41.5204  -11.4567 N   0  0  0  0  0  0  0  0  0  0  0  0
   37.4885   38.9638  -14.4093 C   0  0  2  0  0  0  0  0  0  0  0  0
   38.2869   39.0997  -15.5964 O   0  0  0  0  0  0  0  0  0  0  0  0
   38.5830   36.8290  -18.6122 C   0  0  1  0  0  0  0  0  0  0  0  0
   38.0145   35.5920  -18.1746 O   0  0  0  0  0  0  0  0  0  0  0  0
   36.8782   42.3765   -8.1797 C   0  0  2  0  0  0  0  0  0  0  0  0
   36.0336   41.3535   -7.6458 O   0  0  0  0  0  0  0  0  0  0  0  0
   39.7950   42.0369  -11.9244 C   0  0  2  0  0  0  0  0  0  0  0  0
   36.1112   39.5606  -14.6516 C   0  0  2  0  0  0  0  0  0  0  0  0
   36.2031   40.9662  -14.3336 O   0  0  0  0  0  0  0  0  0  0  0  0
   37.5434   37.5803  -19.4454 C   0  0  2  0  0  0  0  0  0  0  0  0
   38.1734   38.7042  -20.0665 O   0  0  0  0  0  0  0  0  0  0  0  0
   36.7682   42.3911   -9.7051 C   0  0  2  0  0  0  0  0  0  0  0  0
   37.6419   43.3957  -10.2570 O   0  0  0  0  0  0  0  0  0  0  0  0
   38.7815   42.9183  -12.6514 C   0  0  2  0  0  0  0  0  0  0  0  0
   37.5431   42.2031  -12.7915 O   0  0  0  0  0  0  0  0  0  0  0  0
   35.0872   38.8602  -13.7559 C   0  0  0  0  0  0  0  0  0  0  0  0
   35.4172   39.1068  -12.3872 O   0  0  0  0  0  0  0  0  0  0  0  0
   36.4092   38.0430  -18.5270 C   0  0  1  0  0  0  0  0  0  0  0  0
   36.9620   38.9164  -17.5266 O   0  0  0  0  0  0  0  0  0  0  0  0
   35.3140   42.7087  -10.0627 C   0  0  0  0  0  0  0  0  0  0  0  0
   34.9778   44.0762   -9.6410 O   0  0  0  0  0  0  0  0  0  0  0  0
   39.3058   43.3329  -14.0313 C   0  0  1  0  0  0  0  0  0  0  0  0
   38.3830   44.2278  -14.6564 O   0  0  0  0  0  0  0  0  0  0  0  0
   35.3132   38.7875  -19.2905 C   0  0  0  0  0  0  0  0  0  0  0  0
   34.2172   39.1141  -18.3676 N   0  0  0  0  0  0  0  0  0  0  0  0
  1  2  1  6  0  0  0
  1  7  1  0  0  0  0
  1 30  1  0  0  0  0
  3  4  1  6  0  0  0
  3  9  1  0  0  0  0
  3 39  1  0  0  0  0
  5 10  1  0  0  0  0
  5 26  1  0  0  0  0
  5 32  1  1  0  0  0
  6 12  1  0  0  0  0
  6 36  1  0  0  0  0
  6 19  1  1  0  0  0
  7  8  1  6  0  0  0
  7 14  1  0  0  0  0
  9 16  1  0  0  0  0
 10 11  1  6  0  0  0
 10 18  1  0  0  0  0
 12 13  1  6  0  0  0
 12 20  1  0  0  0  0
 14 15  1  1  0  0  0
 14 22  1  0  0  0  0
 16 17  1  6  0  0  0
 16 24  1  0  0  0  0
 18 19  1  6  0  0  0
 18 25  1  0  0  0  0
 20 21  1  1  0  0  0
 20 27  1  0  0  0  0
 22 23  1  1  0  0  0
 22 29  1  0  0  0  0
 24  2  1  1  0  0  0
 24 31  1  0  0  0  0
 25 26  1  0  0  0  0
 25 33  1  1  0  0  0
 27 28  1  1  0  0  0
 27 35  1  0  0  0  0
 29 30  1  0  0  0  0
 29 37  1  1  0  0  0
 31 32  1  6  0  0  0
 31 39  1  0  0  0  0
 33 34  1  0  0  0  0
 35 36  1  0  0  0  0
 35 41  1  6  0  0  0
 37 38  1  0  0  0  0
 39 40  1  1  0  0  0
 41 42  1  0  0  0  0
M  END
>  <CHROM.1>
-157.20015529,90.39242052,-143.03054217,178.39991241,82.98634024,63.10751782
65.94430715,-78.53063628,175.92012070,38.03408800,40.89639143,-13.46326299
-1.46589399,-0.44881652,-2.00336886

>  <Name>
3c44_lig

>  <RI>
224

>  <Rbt.Current_Directory>
/home/itssahil/PROJECTS/Mol_Feturizer/New_Systems/rnas/3c44

>  <Rbt.Executable>
rbdock ($Id: //depot/dev/client3/rdock/2013.1/src/exe/rbdock.cxx#4 $)

>  <Rbt.Library>
libRbt.so (2013.1, Build901 2013/11/27)

>  <Rbt.Parameter_File>
/export/apps/rDock/src/rDock_2013.1_src/data/scripts/dock_solv.prm

>  <Rbt.Receptor>
prm/pocket_docking_8.prm

>  <SCORE>
-3.67261

>  <SCORE.INTER>
-8.10026

>  <SCORE.INTER.CONST>
1

>  <SCORE.INTER.POLAR>
-0.767327

>  <SCORE.INTER.ROT>
9

>  <SCORE.INTER.SOLV>
13.483

>  <SCORE.INTER.VDW>
-16.9367

>  <SCORE.INTER.norm>
-0.192863

>  <SCORE.INTRA>
4.42765

>  <SCORE.INTRA.DIHEDRAL>
0.446151

>  <SCORE.INTRA.DIHEDRAL.0>
14.8538

>  <SCORE.INTRA.POLAR>
0

>  <SCORE.INTRA.POLAR.0>
0

>  <SCORE.INTRA.REPUL>
0

>  <SCORE.INTRA.REPUL.0>
0

>  <SCORE.INTRA.SOLV>
-2.30147

>  <SCORE.INTRA.SOLV.lig_0>
-100.951

>  <SCORE.INTRA.VDW>
5.35531

>  <SCORE.INTRA.VDW.0>
-5.71388

>  <SCORE.INTRA.norm>
0.10542

>  <SCORE.RESTR>
0

>  <SCORE.RESTR.CAVITY>
0

>  <SCORE.RESTR.norm>
0

>  <SCORE.SYSTEM>
0

>  <SCORE.SYSTEM.CONST>
0

>  <SCORE.SYSTEM.DIHEDRAL>
0

>  <SCORE.SYSTEM.SOLV>
0

>  <SCORE.SYSTEM.norm>
0

>  <SCORE.heavy>
42

>  <SCORE.norm>
-0.0874431

>  <RMSD>
8.902

$$$$
3c44_lig
 OpenBabel11021811463D
libRbt.so/2013.1/901 2013/11/27
 42 45  0  0  0  0  0  0  0  0999 V2000
   38.4773   43.2562  -10.8668 C   0  0  2  0  0  0  0  0  0  0  0  0
   38.3775   43.4387  -12.2876 O   0  0  0  0  0  0  0  0  0  0  0  0
   40.4388   45.9525  -14.8607 C   0  0  2  0  0  0  0  0  0  0  0  0
   41.3464   46.7819  -15.6683 N   0  0  0  0  0  0  0  0  0  0  0  0
   38.9839   41.4194  -15.1298 C   0  0  1  0  0  0  0  0  0  0  0  0
   36.2931   39.3048  -17.4179 C   0  0  1  0  0  0  0  0  0  0  0  0
   39.1330   41.9012  -10.5806 C   0  0  2  0  0  0  0  0  0  0  0  0
   40.4247   41.7875  -11.2731 N   0  0  0  0  0  0  0  0  0  0  0  0
   40.5992   46.2703  -13.3712 C   0  0  0  0  0  0  0  0  0  0  0  0
   39.4434   41.1028  -16.5538 C   0  0  2  0  0  0  0  0  0  0  0  0
   39.1282   42.1928  -17.4222 O   0  0  0  0  0  0  0  0  0  0  0  0
   34.9764   39.8531  -17.9779 C   0  0  2  0  0  0  0  0  0  0  0  0
   34.4191   40.8004  -17.0026 N   0  0  0  0  0  0  0  0  0  0  0  0
   38.2302   40.7434  -11.0137 C   0  0  1  0  0  0  0  0  0  0  0  0
   38.8102   39.5077  -10.5846 O   0  0  0  0  0  0  0  0  0  0  0  0
   39.5227   45.4902  -12.6092 C   0  0  2  0  0  0  0  0  0  0  0  0
   39.6837   45.7223  -11.1659 N   0  0  0  0  0  0  0  0  0  0  0  0
   38.5111   39.9352  -16.8710 C   0  0  2  0  0  0  0  0  0  0  0  0
   37.1665   40.3968  -17.0809 O   0  0  0  0  0  0  0  0  0  0  0  0
   33.9614   38.7262  -18.2101 C   0  0  1  0  0  0  0  0  0  0  0  0
   34.3627   37.9130  -19.3158 O   0  0  0  0  0  0  0  0  0  0  0  0
   36.8443   40.9028  -10.3858 C   0  0  2  0  0  0  0  0  0  0  0  0
   35.9730   39.8819  -10.8792 O   0  0  0  0  0  0  0  0  0  0  0  0
   39.5726   43.9807  -12.8765 C   0  0  2  0  0  0  0  0  0  0  0  0
   38.5845   39.1594  -15.5653 C   0  0  2  0  0  0  0  0  0  0  0  0
   38.8363   40.1236  -14.5201 O   0  0  0  0  0  0  0  0  0  0  0  0
   33.8308   37.8400  -16.9702 C   0  0  2  0  0  0  0  0  0  0  0  0
   33.2200   38.5985  -15.9225 O   0  0  0  0  0  0  0  0  0  0  0  0
   36.2775   42.2787  -10.7389 C   0  0  2  0  0  0  0  0  0  0  0  0
   37.1653   43.3157  -10.2767 O   0  0  0  0  0  0  0  0  0  0  0  0
   39.6568   43.6079  -14.3552 C   0  0  2  0  0  0  0  0  0  0  0  0
   39.9884   42.2150  -14.4766 O   0  0  0  0  0  0  0  0  0  0  0  0
   39.7133   38.1295  -15.6468 C   0  0  0  0  0  0  0  0  0  0  0  0
   40.9700   38.8095  -15.6098 O   0  0  0  0  0  0  0  0  0  0  0  0
   35.2242   37.3682  -16.5464 C   0  0  1  0  0  0  0  0  0  0  0  0
   36.0229   38.5252  -16.2420 O   0  0  0  0  0  0  0  0  0  0  0  0
   34.9161   42.4104  -10.0514 C   0  0  0  0  0  0  0  0  0  0  0  0
   35.0836   42.3825   -8.5912 O   0  0  0  0  0  0  0  0  0  0  0  0
   40.7070   44.4610  -15.0767 C   0  0  1  0  0  0  0  0  0  0  0  0
   40.7065   44.1589  -16.4737 O   0  0  0  0  0  0  0  0  0  0  0  0
   35.1783   36.4555  -15.3204 C   0  0  0  0  0  0  0  0  0  0  0  0
   34.6570   37.2120  -14.1734 N   0  0  0  0  0  0  0  0  0  0  0  0
  1  2  1  6  0  0  0
  1  7  1  0  0  0  0
  1 30  1  0  0  0  0
  3  4  1  6  0  0  0
  3  9  1  0  0  0  0
  3 39  1  0  0  0  0
  5 10  1  0  0  0  0
  5 26  1  0  0  0  0
  5 32  1  1  0  0  0
  6 12  1  0  0  0  0
  6 36  1  0  0  0  0
  6 19  1  1  0  0  0
  7  8  1  6  0  0  0
  7 14  1  0  0  0  0
  9 16  1  0  0  0  0
 10 11  1  6  0  0  0
 10 18  1  0  0  0  0
 12 13  1  1  0  0  0
 12 20  1  0  0  0  0
 14 15  1  1  0  0  0
 14 22  1  0  0  0  0
 16 17  1  1  0  0  0
 16 24  1  0  0  0  0
 18 19  1  1  0  0  0
 18 25  1  0  0  0  0
 20 21  1  6  0  0  0
 20 27  1  0  0  0  0
 22 23  1  6  0  0  0
 22 29  1  0  0  0  0
 24  2  1  6  0  0  0
 24 31  1  0  0  0  0
 25 26  1  0  0  0  0
 25 33  1  6  0  0  0
 27 28  1  1  0  0  0
 27 35  1  0  0  0  0
 29 30  1  0  0  0  0
 29 37  1  1  0  0  0
 31 32  1  1  0  0  0
 31 39  1  0  0  0  0
 33 34  1  0  0  0  0
 35 36  1  0  0  0  0
 35 41  1  1  0  0  0
 37 38  1  0  0  0  0
 39 40  1  6  0  0  0
 41 42  1  0  0  0  0
M  END
>  <CHROM.1>
-85.04147672,104.34596334,-165.67263077,178.33354649,-80.04085745,71.20950731
63.97521234,117.69665160,-63.49181052,37.73673905,41.26645708,-14.23155143
0.81570870,0.78529344,1.26072173

>  <Name>
3c44_lig

>  <RI>
0

>  <Rbt.Current_Directory>
/home/itssahil/PROJECTS/Mol_Feturizer/New_Systems/rnas/3c44

>  <Rbt.Executable>
rbdock ($Id: //depot/dev/client3/rdock/2013.1/src/exe/rbdock.cxx#4 $)

>  <Rbt.Library>
libRbt.so (2013.1, Build901 2013/11/27)

>  <Rbt.Parameter_File>
/export/apps/rDock/src/rDock_2013.1_src/data/scripts/dock_solv.prm

>  <Rbt.Receptor>
prm/pocket_docking_5.prm

>  <SCORE>
-7.445

>  <SCORE.INTER>
-12.9638

>  <SCORE.INTER.CONST>
1

>  <SCORE.INTER.POLAR>
-2.30864

>  <SCORE.INTER.ROT>
9

>  <SCORE.INTER.SOLV>
11.2488

>  <SCORE.INTER.VDW>
-14.2967

>  <SCORE.INTER.norm>
-0.308663

>  <SCORE.INTRA>
5.30301

>  <SCORE.INTRA.DIHEDRAL>
4.65315

>  <SCORE.INTRA.DIHEDRAL.0>
14.8538

>  <SCORE.INTRA.POLAR>
0

>  <SCORE.INTRA.POLAR.0>
0

>  <SCORE.INTRA.REPUL>
0.00865659

>  <SCORE.INTRA.REPUL.0>
0

>  <SCORE.INTRA.SOLV>
1.77075

>  <SCORE.INTRA.SOLV.lig_0>
-100.951

>  <SCORE.INTRA.VDW>
2.04778

>  <SCORE.INTRA.VDW.0>
-5.71388

>  <SCORE.INTRA.norm>
0.126262

>  <SCORE.RESTR>
0.215826

>  <SCORE.RESTR.CAVITY>
0.215826

>  <SCORE.RESTR.norm>
0.00513872

>  <SCORE.SYSTEM>
0

>  <SCORE.SYSTEM.CONST>
0

>  <SCORE.SYSTEM.DIHEDRAL>
0

>  <SCORE.SYSTEM.SOLV>
0

>  <SCORE.SYSTEM.norm>
0

>  <SCORE.heavy>
42

>  <SCORE.norm>
-0.177262

>  <RMSD>
8.918

$$$$
3c44_lig
 OpenBabel11021811463D
libRbt.so/2013.1/901 2013/11/27
 42 45  0  0  0  0  0  0  0  0999 V2000
   37.8845   42.5140  -12.9006 C   0  0  2  0  0  0  0  0  0  0  0  0
   39.1008   42.1295  -12.2414 O   0  0  0  0  0  0  0  0  0  0  0  0
   41.2175   44.0518  -15.2437 C   0  0  2  0  0  0  0  0  0  0  0  0
   42.1176   44.7704  -16.1588 N   0  0  0  0  0  0  0  0  0  0  0  0
   40.7529   39.5332  -13.6141 C   0  0  1  0  0  0  0  0  0  0  0  0
   39.3027   35.6657  -14.3132 C   0  0  1  0  0  0  0  0  0  0  0  0
   36.6968   41.8767  -12.1718 C   0  0  2  0  0  0  0  0  0  0  0  0
   36.7155   42.2173  -10.7419 N   0  0  0  0  0  0  0  0  0  0  0  0
   40.8857   44.9162  -14.0239 C   0  0  0  0  0  0  0  0  0  0  0  0
   41.6623   38.3480  -13.2863 C   0  0  2  0  0  0  0  0  0  0  0  0
   42.4879   38.0404  -14.4113 O   0  0  0  0  0  0  0  0  0  0  0  0
   40.2443   34.4569  -14.3133 C   0  0  2  0  0  0  0  0  0  0  0  0
   41.1009   34.5393  -15.5043 N   0  0  0  0  0  0  0  0  0  0  0  0
   36.7033   40.3535  -12.3227 C   0  0  1  0  0  0  0  0  0  0  0  0
   35.4985   39.8196  -11.7654 O   0  0  0  0  0  0  0  0  0  0  0  0
   39.8297   44.1730  -13.1989 C   0  0  2  0  0  0  0  0  0  0  0  0
   39.5294   44.9455  -11.9840 N   0  0  0  0  0  0  0  0  0  0  0  0
   40.6102   37.2514  -13.1333 C   0  0  2  0  0  0  0  0  0  0  0  0
   40.0718   36.8771  -14.4121 O   0  0  0  0  0  0  0  0  0  0  0  0
   39.4565   33.1412  -14.3593 C   0  0  1  0  0  0  0  0  0  0  0  0
   38.7892   32.9151  -13.1149 O   0  0  0  0  0  0  0  0  0  0  0  0
   36.7914   39.9789  -13.8033 C   0  0  2  0  0  0  0  0  0  0  0  0
   36.9082   38.5596  -13.9337 O   0  0  0  0  0  0  0  0  0  0  0  0
   40.2699   42.7613  -12.7917 C   0  0  2  0  0  0  0  0  0  0  0  0
   39.5511   37.9932  -12.3331 C   0  0  2  0  0  0  0  0  0  0  0  0
   39.6536   39.3872  -12.6960 O   0  0  0  0  0  0  0  0  0  0  0  0
   38.4144   33.1634  -15.4788 C   0  0  2  0  0  0  0  0  0  0  0  0
   39.0905   33.1661  -16.7394 O   0  0  0  0  0  0  0  0  0  0  0  0
   38.0108   40.6559  -14.4310 C   0  0  2  0  0  0  0  0  0  0  0  0
   37.9211   42.0858  -14.2747 O   0  0  0  0  0  0  0  0  0  0  0  0
   40.8397   41.9271  -13.9372 C   0  0  2  0  0  0  0  0  0  0  0  0
   41.4785   40.7567  -13.4015 O   0  0  0  0  0  0  0  0  0  0  0  0
   39.8091   37.7939  -10.8381 C   0  0  0  0  0  0  0  0  0  0  0  0
   38.7997   38.4798  -10.0940 O   0  0  0  0  0  0  0  0  0  0  0  0
   37.5524   34.4200  -15.3317 C   0  0  1  0  0  0  0  0  0  0  0  0
   38.4075   35.5724  -15.4328 O   0  0  0  0  0  0  0  0  0  0  0  0
   38.0298   40.2920  -15.9178 C   0  0  0  0  0  0  0  0  0  0  0  0
   36.8524   40.8590  -16.5910 O   0  0  0  0  0  0  0  0  0  0  0  0
   41.8442   42.7411  -14.7614 C   0  0  1  0  0  0  0  0  0  0  0  0
   42.2969   41.9727  -15.8783 O   0  0  0  0  0  0  0  0  0  0  0  0
   36.4672   34.5066  -16.4056 C   0  0  0  0  0  0  0  0  0  0  0  0
   37.0981   34.7303  -17.7139 N   0  0  0  0  0  0  0  0  0  0  0  0
  1  2  1  1  0  0  0
  1  7  1  0  0  0  0
  1 30  1  0  0  0  0
  3  4  1  6  0  0  0
  3  9  1  0  0  0  0
  3 39  1  0  0  0  0
  5 10  1  0  0  0  0
  5 26  1  0  0  0  0
  5 32  1  1  0  0  0
  6 12  1  0  0  0  0
  6 36  1  0  0  0  0
  6 19  1  6  0  0  0
  7  8  1  1  0  0  0
  7 14  1  0  0  0  0
  9 16  1  0  0  0  0
 10 11  1  6  0  0  0
 10 18  1  0  0  0  0
 12 13  1  6  0  0  0
 12 20  1  0  0  0  0
 14 15  1  6  0  0  0
 14 22  1  0  0  0  0
 16 17  1  1  0  0  0
 16 24  1  0  0  0  0
 18 19  1  6  0  0  0
 18 25  1  0  0  0  0
 20 21  1  1  0  0  0
 20 27  1  0  0  0  0
 22 23  1  1  0  0  0
 22 29  1  0  0  0  0
 24  2  1  6  0  0  0
 24 31  1  0  0  0  0
 25 26  1  0  0  0  0
 25 33  1  1  0  0  0
 27 28  1  6  0  0  0
 27 35  1  0  0  0  0
 29 30  1  0  0  0  0
 29 37  1  6  0  0  0
 31 32  1  1  0  0  0
 31 39  1  0  0  0  0
 33 34  1  0  0  0  0
 35 36  1  0  0  0  0
 35 41  1  6  0  0  0
 37 38  1  0  0  0  0
 39 40  1  6  0  0  0
 41 42  1  0  0  0  0
M  END
>  <CHROM.1>
-175.55080331,167.52002467,-80.50180824,167.68098680,35.53661300,-179.25954253
64.58909604,106.94410798,-68.02635873,39.19851368,39.12408349,-13.95684673
1.44342666,0.50701437,0.23150921

>  <Name>
3c44_lig

>  <RI>
0

>  <Rbt.Current_Directory>
/home/itssahil/PROJECTS/Mol_Feturizer/New_Systems/rnas/3c44

>  <Rbt.Executable>
rbdock ($Id: //depot/dev/client3/rdock/2013.1/src/exe/rbdock.cxx#4 $)

>  <Rbt.Library>
libRbt.so (2013.1, Build901 2013/11/27)

>  <Rbt.Parameter_File>
/export/apps/rDock/src/rDock_2013.1_src/data/scripts/dock_solv.prm

>  <Rbt.Receptor>
prm/pocket_docking_6.prm

>  <SCORE>
-9.06653

>  <SCORE.INTER>
-11.035

>  <SCORE.INTER.CONST>
1

>  <SCORE.INTER.POLAR>
-0.87178

>  <SCORE.INTER.ROT>
9

>  <SCORE.INTER.SOLV>
7.51989

>  <SCORE.INTER.VDW>
-16.5574

>  <SCORE.INTER.norm>
-0.262739

>  <SCORE.INTRA>
1.96849

>  <SCORE.INTRA.DIHEDRAL>
-1.78038

>  <SCORE.INTRA.DIHEDRAL.0>
14.8538

>  <SCORE.INTRA.POLAR>
0

>  <SCORE.INTRA.POLAR.0>
0

>  <SCORE.INTRA.REPUL>
0.0115896

>  <SCORE.INTRA.REPUL.0>
0

>  <SCORE.INTRA.SOLV>
-0.0734106

>  <SCORE.INTRA.SOLV.lig_0>
-100.951

>  <SCORE.INTRA.VDW>
2.83744

>  <SCORE.INTRA.VDW.0>
-5.71388

>  <SCORE.INTRA.norm>
0.0468688

>  <SCORE.RESTR>
0

>  <SCORE.RESTR.CAVITY>
0

>  <SCORE.RESTR.norm>
0

>  <SCORE.SYSTEM>
0

>  <SCORE.SYSTEM.CONST>
0

>  <SCORE.SYSTEM.DIHEDRAL>
0

>  <SCORE.SYSTEM.SOLV>
0

>  <SCORE.SYSTEM.norm>
0

>  <SCORE.heavy>
42

>  <SCORE.norm>
-0.21587

>  <RMSD>
8.935

$$$$
3c44_lig
 OpenBabel11021811463D
libRbt.so/2013.1/901 2013/11/27
 42 45  0  0  0  0  0  0  0  0999 V2000
   36.6821   43.0561  -13.7544 C   0  0  2  0  0  0  0  0  0  0  0  0
   37.8840   42.4353  -13.2730 O   0  0  0  0  0  0  0  0  0  0  0  0
   39.9745   44.6379  -16.0958 C   0  0  2  0  0  0  0  0  0  0  0  0
   40.8841   45.4001  -16.9650 N   0  0  0  0  0  0  0  0  0  0  0  0
   38.8482   40.0788  -14.5884 C   0  0  1  0  0  0  0  0  0  0  0  0
   36.7167   36.5205  -14.9673 C   0  0  1  0  0  0  0  0  0  0  0  0
   35.4730   42.3877  -13.0916 C   0  0  2  0  0  0  0  0  0  0  0  0
   35.5957   42.4170  -11.6270 N   0  0  0  0  0  0  0  0  0  0  0  0
   39.9248   45.2536  -14.6945 C   0  0  0  0  0  0  0  0  0  0  0  0
   39.3465   38.6582  -14.8579 C   0  0  2  0  0  0  0  0  0  0  0  0
   39.1024   38.3055  -16.2209 O   0  0  0  0  0  0  0  0  0  0  0  0
   35.2656   36.5037  -15.4589 C   0  0  2  0  0  0  0  0  0  0  0  0
   34.4108   37.0435  -14.3925 N   0  0  0  0  0  0  0  0  0  0  0  0
   35.3183   40.9358  -13.5512 C   0  0  1  0  0  0  0  0  0  0  0  0
   34.0943   40.4056  -13.0334 O   0  0  0  0  0  0  0  0  0  0  0  0
   38.8488   44.5101  -13.8961 C   0  0  2  0  0  0  0  0  0  0  0  0
   38.8138   45.0337  -12.5222 N   0  0  0  0  0  0  0  0  0  0  0  0
   38.3844   37.8750  -13.9669 C   0  0  2  0  0  0  0  0  0  0  0  0
   37.0658   37.8481  -14.5376 O   0  0  0  0  0  0  0  0  0  0  0  0
   34.8082   35.0762  -15.7861 C   0  0  1  0  0  0  0  0  0  0  0  0
   35.4589   34.6021  -16.9680 O   0  0  0  0  0  0  0  0  0  0  0  0
   35.2958   40.8747  -15.0796 C   0  0  2  0  0  0  0  0  0  0  0  0
   35.2621   39.5099  -15.5053 O   0  0  0  0  0  0  0  0  0  0  0  0
   39.0804   42.9948  -13.8427 C   0  0  2  0  0  0  0  0  0  0  0  0
   38.3828   38.7509  -12.7239 C   0  0  2  0  0  0  0  0  0  0  0  0
   38.6319   40.1030  -13.1653 O   0  0  0  0  0  0  0  0  0  0  0  0
   35.1238   34.1204  -14.6344 C   0  0  2  0  0  0  0  0  0  0  0  0
   34.3035   34.4611  -13.5132 O   0  0  0  0  0  0  0  0  0  0  0  0
   36.5453   41.5576  -15.6376 C   0  0  2  0  0  0  0  0  0  0  0  0
   36.6082   42.9249  -15.1863 O   0  0  0  0  0  0  0  0  0  0  0  0
   39.3760   42.3573  -15.1987 C   0  0  2  0  0  0  0  0  0  0  0  0
   39.8569   41.0179  -15.0000 O   0  0  0  0  0  0  0  0  0  0  0  0
   39.4756   38.2757  -11.7640 C   0  0  0  0  0  0  0  0  0  0  0  0
   40.7548   38.5404  -12.3441 O   0  0  0  0  0  0  0  0  0  0  0  0
   36.6056   34.2498  -14.2719 C   0  0  1  0  0  0  0  0  0  0  0  0
   36.8579   35.6071  -13.8677 O   0  0  0  0  0  0  0  0  0  0  0  0
   36.4550   41.5143  -17.1652 C   0  0  0  0  0  0  0  0  0  0  0  0
   37.7088   42.0009  -17.7587 O   0  0  0  0  0  0  0  0  0  0  0  0
   40.4139   43.1765  -15.9751 C   0  0  1  0  0  0  0  0  0  0  0  0
   40.6091   42.6132  -17.2742 O   0  0  0  0  0  0  0  0  0  0  0  0
   37.0084   33.3070  -13.1373 C   0  0  0  0  0  0  0  0  0  0  0  0
   36.2803   33.6803  -11.9166 N   0  0  0  0  0  0  0  0  0  0  0  0
  1  2  1  1  0  0  0
  1  7  1  0  0  0  0
  1 30  1  0  0  0  0
  3  4  1  6  0  0  0
  3  9  1  0  0  0  0
  3 39  1  0  0  0  0
  5 10  1  0  0  0  0
  5 26  1  0  0  0  0
  5 32  1  1  0  0  0
  6 12  1  0  0  0  0
  6 36  1  0  0  0  0
  6 19  1  1  0  0  0
  7  8  1  1  0  0  0
  7 14  1  0  0  0  0
  9 16  1  0  0  0  0
 10 11  1  6  0  0  0
 10 18  1  0  0  0  0
 12 13  1  1  0  0  0
 12 20  1  0  0  0  0
 14 15  1  1  0  0  0
 14 22  1  0  0  0  0
 16 17  1  1  0  0  0
 16 24  1  0  0  0  0
 18 19  1  6  0  0  0
 18 25  1  0  0  0  0
 20 21  1  6  0  0  0
 20 27  1  0  0  0  0
 22 23  1  1  0  0  0
 22 29  1  0  0  0  0
 24  2  1  6  0  0  0
 24 31  1  0  0  0  0
 25 26  1  0  0  0  0
 25 33  1  1  0  0  0
 27 28  1  1  0  0  0
 27 35  1  0  0  0  0
 29 30  1  0  0  0  0
 29 37  1  6  0  0  0
 31 32  1  1  0  0  0
 31 39  1  0  0  0  0
 33 34  1  0  0  0  0
 35 36  1  0  0  0  0
 35 41  1  1  0  0  0
 37 38  1  0  0  0  0
 39 40  1  6  0  0  0
 41 42  1  0  0  0  0
M  END
>  <CHROM.1>
179.86053712,161.33806775,175.20327787,111.81597234,40.41571679,67.91347759
-172.73501857,72.79419016,-63.79220171,37.46645033,39.75077411,-14.51730028
1.21699077,0.17703762,-0.02867402

>  <Name>
3c44_lig

>  <RI>
0

>  <Rbt.Current_Directory>
/home/itssahil/PROJECTS/Mol_Feturizer/New_Systems/rnas/3c44

>  <Rbt.Executable>
rbdock ($Id: //depot/dev/client3/rdock/2013.1/src/exe/rbdock.cxx#4 $)

>  <Rbt.Library>
libRbt.so (2013.1, Build901 2013/11/27)

>  <Rbt.Parameter_File>
/export/apps/rDock/src/rDock_2013.1_src/data/scripts/dock_solv.prm

>  <Rbt.Receptor>
prm/pocket_docking_4.prm

>  <SCORE>
-9.08366

>  <SCORE.INTER>
-13.2721

>  <SCORE.INTER.CONST>
1

>  <SCORE.INTER.POLAR>
-1.93808

>  <SCORE.INTER.ROT>
9

>  <SCORE.INTER.SOLV>
15.2967

>  <SCORE.INTER.VDW>
-17.0867

>  <SCORE.INTER.norm>
-0.316001

>  <SCORE.INTRA>
4.18839

>  <SCORE.INTRA.DIHEDRAL>
-3.49048

>  <SCORE.INTRA.DIHEDRAL.0>
14.8538

>  <SCORE.INTRA.POLAR>
0

>  <SCORE.INTRA.POLAR.0>
0

>  <SCORE.INTRA.REPUL>
0.355558

>  <SCORE.INTRA.REPUL.0>
0

>  <SCORE.INTRA.SOLV>
2.49285

>  <SCORE.INTRA.SOLV.lig_0>
-100.951

>  <SCORE.INTRA.VDW>
2.90942

>  <SCORE.INTRA.VDW.0>
-5.71388

>  <SCORE.INTRA.norm>
0.0997236

>  <SCORE.RESTR>
0

>  <SCORE.RESTR.CAVITY>
0

>  <SCORE.RESTR.norm>
0

>  <SCORE.SYSTEM>
0

>  <SCORE.SYSTEM.CONST>
0

>  <SCORE.SYSTEM.DIHEDRAL>
0

>  <SCORE.SYSTEM.SOLV>
0

>  <SCORE.SYSTEM.norm>
0

>  <SCORE.heavy>
42

>  <SCORE.norm>
-0.216278

>  <RMSD>
8.937

$$$$
3c44_lig
 OpenBabel11021811463D
libRbt.so/2013.1/901 2013/11/27
 42 45  0  0  0  0  0  0  0  0999 V2000
   37.1218   43.0802  -14.1211 C   0  0  2  0  0  0  0  0  0  0  0  0
   37.8909   42.9061  -12.9211 O   0  0  0  0  0  0  0  0  0  0  0  0
   41.2566   43.9504  -15.1053 C   0  0  2  0  0  0  0  0  0  0  0  0
   42.5335   44.3846  -15.6927 N   0  0  0  0  0  0  0  0  0  0  0  0
   39.4898   40.0136  -12.9022 C   0  0  1  0  0  0  0  0  0  0  0  0
   37.7709   36.1921  -13.2888 C   0  0  1  0  0  0  0  0  0  0  0  0
   35.6838   42.6166  -13.8660 C   0  0  2  0  0  0  0  0  0  0  0  0
   35.1093   43.3071  -12.7023 N   0  0  0  0  0  0  0  0  0  0  0  0
   40.6044   45.0955  -14.3252 C   0  0  0  0  0  0  0  0  0  0  0  0
   40.0955   38.8404  -12.1301 C   0  0  2  0  0  0  0  0  0  0  0  0
   41.1279   38.2273  -12.9046 O   0  0  0  0  0  0  0  0  0  0  0  0
   38.5367   34.9989  -12.7079 C   0  0  2  0  0  0  0  0  0  0  0  0
   39.7343   34.7751  -13.5292 N   0  0  0  0  0  0  0  0  0  0  0  0
   35.6193   41.1052  -13.6323 C   0  0  1  0  0  0  0  0  0  0  0  0
   34.2497   40.6980  -13.5576 O   0  0  0  0  0  0  0  0  0  0  0  0
   39.2170   44.6240  -13.8772 C   0  0  2  0  0  0  0  0  0  0  0  0
   38.5823   45.6772  -13.0704 N   0  0  0  0  0  0  0  0  0  0  0  0
   38.8875   37.9064  -12.0927 C   0  0  2  0  0  0  0  0  0  0  0  0
   38.6481   37.3279  -13.3862 O   0  0  0  0  0  0  0  0  0  0  0  0
   37.6780   33.7275  -12.7267 C   0  0  1  0  0  0  0  0  0  0  0  0
   36.6270   33.8207  -11.7614 O   0  0  0  0  0  0  0  0  0  0  0  0
   36.3085   40.3719  -14.7844 C   0  0  2  0  0  0  0  0  0  0  0  0
   36.3432   38.9691  -14.5088 O   0  0  0  0  0  0  0  0  0  0  0  0
   39.2590   43.3291  -13.0562 C   0  0  2  0  0  0  0  0  0  0  0  0
   37.7812   38.8971  -11.7661 C   0  0  2  0  0  0  0  0  0  0  0  0
   38.1816   40.1685  -12.3215 O   0  0  0  0  0  0  0  0  0  0  0  0
   37.0588   33.5028  -14.1072 C   0  0  2  0  0  0  0  0  0  0  0  0
   38.1008   33.1888  -15.0355 O   0  0  0  0  0  0  0  0  0  0  0  0
   37.7346   40.9001  -14.9474 C   0  0  2  0  0  0  0  0  0  0  0  0
   37.7138   42.3205  -15.1913 O   0  0  0  0  0  0  0  0  0  0  0  0
   40.1033   42.2189  -13.6785 C   0  0  2  0  0  0  0  0  0  0  0  0
   40.3107   41.1787  -12.7091 O   0  0  0  0  0  0  0  0  0  0  0  0
   37.6112   38.9893  -10.2481 C   0  0  0  0  0  0  0  0  0  0  0  0
   37.1606   37.7274   -9.7508 O   0  0  0  0  0  0  0  0  0  0  0  0
   36.3255   34.7761  -14.5371 C   0  0  1  0  0  0  0  0  0  0  0  0
   37.2784   35.8522  -14.5948 O   0  0  0  0  0  0  0  0  0  0  0  0
   38.3655   40.1738  -16.1381 C   0  0  0  0  0  0  0  0  0  0  0  0
   37.7145   40.5933  -17.3875 O   0  0  0  0  0  0  0  0  0  0  0  0
   41.4536   42.7620  -14.1608 C   0  0  1  0  0  0  0  0  0  0  0  0
   42.1897   41.7283  -14.8186 O   0  0  0  0  0  0  0  0  0  0  0  0
   35.6575   34.6258  -15.9045 C   0  0  0  0  0  0  0  0  0  0  0  0
   34.9718   35.8792  -16.2483 N   0  0  0  0  0  0  0  0  0  0  0  0
  1  2  1  1  0  0  0
  1  7  1  0  0  0  0
  1 30  1  0  0  0  0
  3  4  1  1  0  0  0
  3  9  1  0  0  0  0
  3 39  1  0  0  0  0
  5 10  1  0  0  0  0
  5 26  1  0  0  0  0
  5 32  1  1  0  0  0
  6 12  1  0  0  0  0
  6 36  1  0  0  0  0
  6 19  1  6  0  0  0
  7  8  1  1  0  0  0
  7 14  1  0  0  0  0
  9 16  1  0  0  0  0
 10 11  1  6  0  0  0
 10 18  1  0  0  0  0
 12 13  1  6  0  0  0
 12 20  1  0  0  0  0
 14 15  1  6  0  0  0
 14 22  1  0  0  0  0
 16 17  1  1  0  0  0
 16 24  1  0  0  0  0
 18 19  1  6  0  0  0
 18 25  1  0  0  0  0
 20 21  1  1  0  0  0
 20 27  1  0  0  0  0
 22 23  1  1  0  0  0
 22 29  1  0  0  0  0
 24  2  1  6  0  0  0
 24 31  1  0  0  0  0
 25 26  1  0  0  0  0
 25 33  1  1  0  0  0
 27 28  1  6  0  0  0
 27 35  1  0  0  0  0
 29 30  1  0  0  0  0
 29 37  1  6  0  0  0
 31 32  1  1  0  0  0
 31 39  1  0  0  0  0
 33 34  1  0  0  0  0
 35 36  1  0  0  0  0
 35 41  1  6  0  0  0
 37 38  1  0  0  0  0
 39 40  1  6  0  0  0
 41 42  1  0  0  0  0
M  END
>  <CHROM.1>
-179.36083793,161.86285939,-74.74073295,164.15054603,40.49122835,-64.75255340
68.50685401,102.85659275,179.79162507,38.18585213,39.52380233,-13.72018206
1.32764888,-0.09694908,-0.07597872

>  <Name>
3c44_lig

>  <RI>
0

>  <Rbt.Current_Directory>
/home/itssahil/PROJECTS/Mol_Feturizer/New_Systems/rnas/3c44

>  <Rbt.Executable>
rbdock ($Id: //depot/dev/client3/rdock/2013.1/src/exe/rbdock.cxx#4 $)

>  <Rbt.Library>
libRbt.so (2013.1, Build901 2013/11/27)

>  <Rbt.Parameter_File>
/export/apps/rDock/src/rDock_2013.1_src/data/scripts/dock_solv.prm

>  <Rbt.Receptor>
prm/pocket_docking_4.prm

>  <SCORE>
-17.4945

>  <SCORE.INTER>
-18.2018

>  <SCORE.INTER.CONST>
1

>  <SCORE.INTER.POLAR>
-2.91788

>  <SCORE.INTER.ROT>
9

>  <SCORE.INTER.SOLV>
16.4709

>  <SCORE.INTER.VDW>
-17.4985

>  <SCORE.INTER.norm>
-0.433375

>  <SCORE.INTRA>
0.707288

>  <SCORE.INTRA.DIHEDRAL>
-2.93563

>  <SCORE.INTRA.DIHEDRAL.0>
14.8538

>  <SCORE.INTRA.POLAR>
0

>  <SCORE.INTRA.POLAR.0>
0

>  <SCORE.INTRA.REPUL>
0.0172627

>  <SCORE.INTRA.REPUL.0>
0

>  <SCORE.INTRA.SOLV>
-1.20662

>  <SCORE.INTRA.SOLV.lig_0>
-100.951

>  <SCORE.INTRA.VDW>
2.6921

>  <SCORE.INTRA.VDW.0>
-5.71388

>  <SCORE.INTRA.norm>
0.0168402

>  <SCORE.RESTR>
0

>  <SCORE.RESTR.CAVITY>
0

>  <SCORE.RESTR.norm>
0

>  <SCORE.SYSTEM>
0

>  <SCORE.SYSTEM.CONST>
0

>  <SCORE.SYSTEM.DIHEDRAL>
0

>  <SCORE.SYSTEM.SOLV>
0

>  <SCORE.SYSTEM.norm>
0

>  <SCORE.heavy>
42

>  <SCORE.norm>
-0.416535

>  <RMSD>
8.939

$$$$
3c44_lig
 OpenBabel11021811463D
libRbt.so/2013.1/901 2013/11/27
 42 45  0  0  0  0  0  0  0  0999 V2000
   38.8141   42.9180   -9.8538 C   0  0  2  0  0  0  0  0  0  0  0  0
   38.5930   43.5477  -11.1252 O   0  0  0  0  0  0  0  0  0  0  0  0
   39.4046   47.4683  -12.2021 C   0  0  2  0  0  0  0  0  0  0  0  0
   39.8920   48.8206  -12.5147 N   0  0  0  0  0  0  0  0  0  0  0  0
   39.4193   42.8920  -13.9747 C   0  0  1  0  0  0  0  0  0  0  0  0
   36.3962   40.2026  -15.2455 C   0  0  1  0  0  0  0  0  0  0  0  0
   39.3411   41.4977  -10.0833 C   0  0  2  0  0  0  0  0  0  0  0  0
   40.5362   41.5142  -10.9392 N   0  0  0  0  0  0  0  0  0  0  0  0
   39.6551   47.1315  -10.7293 C   0  0  0  0  0  0  0  0  0  0  0  0
   38.2938   43.3425  -14.9071 C   0  0  2  0  0  0  0  0  0  0  0  0
   37.1872   43.8218  -14.1406 O   0  0  0  0  0  0  0  0  0  0  0  0
   35.4375   39.5594  -14.2381 C   0  0  2  0  0  0  0  0  0  0  0  0
   36.2307   39.0249  -13.1226 N   0  0  0  0  0  0  0  0  0  0  0  0
   38.2768   40.6064  -10.7283 C   0  0  1  0  0  0  0  0  0  0  0  0
   38.7566   39.2592  -10.7767 O   0  0  0  0  0  0  0  0  0  0  0  0
   38.9874   45.7832  -10.4390 C   0  0  2  0  0  0  0  0  0  0  0  0
   39.2589   45.3957   -9.0465 N   0  0  0  0  0  0  0  0  0  0  0  0
   37.9185   41.9973  -15.5254 C   0  0  2  0  0  0  0  0  0  0  0  0
   37.2174   41.1762  -14.5771 O   0  0  0  0  0  0  0  0  0  0  0  0
   34.6481   38.4111  -14.8801 C   0  0  1  0  0  0  0  0  0  0  0  0
   33.6939   38.9224  -15.8144 O   0  0  0  0  0  0  0  0  0  0  0  0
   36.9873   40.6605   -9.9071 C   0  0  2  0  0  0  0  0  0  0  0  0
   35.9631   39.9155  -10.5713 O   0  0  0  0  0  0  0  0  0  0  0  0
   39.4695   44.6620  -11.3679 C   0  0  2  0  0  0  0  0  0  0  0  0
   39.2996   41.4142  -15.7797 C   0  0  2  0  0  0  0  0  0  0  0  0
   40.1771   41.9647  -14.7736 O   0  0  0  0  0  0  0  0  0  0  0  0
   35.5811   37.4437  -15.6104 C   0  0  2  0  0  0  0  0  0  0  0  0
   36.3899   36.7646  -14.6455 O   0  0  0  0  0  0  0  0  0  0  0  0
   36.5436   42.1153   -9.7459 C   0  0  2  0  0  0  0  0  0  0  0  0
   37.5827   42.8842   -9.1085 O   0  0  0  0  0  0  0  0  0  0  0  0
   39.4679   45.0310  -12.8500 C   0  0  2  0  0  0  0  0  0  0  0  0
   40.1981   44.0379  -13.5883 O   0  0  0  0  0  0  0  0  0  0  0  0
   39.7649   41.7998  -17.1856 C   0  0  0  0  0  0  0  0  0  0  0  0
   38.7992   41.3484  -18.1377 O   0  0  0  0  0  0  0  0  0  0  0  0
   36.4597   38.2369  -16.5813 C   0  0  1  0  0  0  0  0  0  0  0  0
   37.2307   39.1868  -15.8246 O   0  0  0  0  0  0  0  0  0  0  0  0
   35.2812   42.1225   -8.8801 C   0  0  0  0  0  0  0  0  0  0  0  0
   35.5766   41.5642   -7.5528 O   0  0  0  0  0  0  0  0  0  0  0  0
   40.0934   46.4133  -13.0714 C   0  0  1  0  0  0  0  0  0  0  0  0
   40.0010   46.7765  -14.4507 O   0  0  0  0  0  0  0  0  0  0  0  0
   37.4108   37.3357  -17.3698 C   0  0  0  0  0  0  0  0  0  0  0  0
   38.1153   38.1401  -18.3778 N   0  0  0  0  0  0  0  0  0  0  0  0
  1  2  1  6  0  0  0
  1  7  1  0  0  0  0
  1 30  1  0  0  0  0
  3  4  1  6  0  0  0
  3  9  1  0  0  0  0
  3 39  1  0  0  0  0
  5 10  1  0  0  0  0
  5 26  1  0  0  0  0
  5 32  1  6  0  0  0
  6 12  1  0  0  0  0
  6 36  1  0  0  0  0
  6 19  1  1  0  0  0
  7  8  1  6  0  0  0
  7 14  1  0  0  0  0
  9 16  1  0  0  0  0
 10 11  1  1  0  0  0
 10 18  1  0  0  0  0
 12 13  1  1  0  0  0
 12 20  1  0  0  0  0
 14 15  1  1  0  0  0
 14 22  1  0  0  0  0
 16 17  1  1  0  0  0
 16 24  1  0  0  0  0
 18 19  1  1  0  0  0
 18 25  1  0  0  0  0
 20 21  1  6  0  0  0
 20 27  1  0  0  0  0
 22 23  1  6  0  0  0
 22 29  1  0  0  0  0
 24  2  1  6  0  0  0
 24 31  1  0  0  0  0
 25 26  1  0  0  0  0
 25 33  1  6  0  0  0
 27 28  1  1  0  0  0
 27 35  1  0  0  0  0
 29 30  1  0  0  0  0
 29 37  1  1  0  0  0
 31 32  1  6  0  0  0
 31 39  1  0  0  0  0
 33 34  1  0  0  0  0
 35 36  1  0  0  0  0
 35 41  1  1  0  0  0
 37 38  1  0  0  0  0
 39 40  1  6  0  0  0
 41 42  1  0  0  0  0
M  END
>  <CHROM.1>
-114.06516238,62.31352308,-167.54459570,156.00045185,-71.87275340,-56.62693350
61.39433313,85.44979492,173.96850691,37.94781644,41.95198826,-13.10986137
0.94711568,1.04081481,1.18293795

>  <Name>
3c44_lig

>  <RI>
0

>  <Rbt.Current_Directory>
/home/itssahil/PROJECTS/Mol_Feturizer/New_Systems/rnas/3c44

>  <Rbt.Executable>
rbdock ($Id: //depot/dev/client3/rdock/2013.1/src/exe/rbdock.cxx#4 $)

>  <Rbt.Library>
libRbt.so (2013.1, Build901 2013/11/27)

>  <Rbt.Parameter_File>
/export/apps/rDock/src/rDock_2013.1_src/data/scripts/dock_solv.prm

>  <Rbt.Receptor>
prm/pocket_docking_5.prm

>  <SCORE>
-9.36255

>  <SCORE.INTER>
-11.6365

>  <SCORE.INTER.CONST>
1

>  <SCORE.INTER.POLAR>
-1.54535

>  <SCORE.INTER.ROT>
9

>  <SCORE.INTER.SOLV>
8.61839

>  <SCORE.INTER.VDW>
-15.0793

>  <SCORE.INTER.norm>
-0.277059

>  <SCORE.INTRA>
2.26805

>  <SCORE.INTRA.DIHEDRAL>
-0.715914

>  <SCORE.INTRA.DIHEDRAL.0>
14.8538

>  <SCORE.INTRA.POLAR>
0

>  <SCORE.INTRA.POLAR.0>
0

>  <SCORE.INTRA.REPUL>
0.00745695

>  <SCORE.INTRA.REPUL.0>
0

>  <SCORE.INTRA.SOLV>
2.54138

>  <SCORE.INTRA.SOLV.lig_0>
-100.951

>  <SCORE.INTRA.VDW>
1.31803

>  <SCORE.INTRA.VDW.0>
-5.71388

>  <SCORE.INTRA.norm>
0.0540011

>  <SCORE.RESTR>
0.00586663

>  <SCORE.RESTR.CAVITY>
0.00586663

>  <SCORE.RESTR.norm>
0.000139682

>  <SCORE.SYSTEM>
0

>  <SCORE.SYSTEM.CONST>
0

>  <SCORE.SYSTEM.DIHEDRAL>
0

>  <SCORE.SYSTEM.SOLV>
0

>  <SCORE.SYSTEM.norm>
0

>  <SCORE.heavy>
42

>  <SCORE.norm>
-0.222918

>  <RMSD>
8.947

$$$$
3c44_lig
 OpenBabel11021811463D
libRbt.so/2013.1/901 2013/11/27
 42 45  0  0  0  0  0  0  0  0999 V2000
   37.9319   41.4007  -14.8656 C   0  0  2  0  0  0  0  0  0  0  0  0
   38.8095   40.7573  -13.9288 O   0  0  0  0  0  0  0  0  0  0  0  0
   38.6574   39.8750   -9.8806 C   0  0  2  0  0  0  0  0  0  0  0  0
   38.5479   39.7676   -8.4176 N   0  0  0  0  0  0  0  0  0  0  0  0
   35.2160   39.4119  -12.8262 C   0  0  1  0  0  0  0  0  0  0  0  0
   32.3777   37.5557  -15.0925 C   0  0  1  0  0  0  0  0  0  0  0  0
   38.4217   41.1141  -16.2889 C   0  0  2  0  0  0  0  0  0  0  0  0
   38.5546   39.6678  -16.5161 N   0  0  0  0  0  0  0  0  0  0  0  0
   39.6306   40.9920  -10.2683 C   0  0  0  0  0  0  0  0  0  0  0  0
   35.2100   39.0160  -14.3034 C   0  0  2  0  0  0  0  0  0  0  0  0
   34.3325   39.8739  -15.0352 O   0  0  0  0  0  0  0  0  0  0  0  0
   32.1303   36.0606  -15.3191 C   0  0  2  0  0  0  0  0  0  0  0  0
   33.4301   35.3756  -15.3389 N   0  0  0  0  0  0  0  0  0  0  0  0
   39.7689   41.7884  -16.5604 C   0  0  1  0  0  0  0  0  0  0  0  0
   40.1070   41.6267  -17.9413 O   0  0  0  0  0  0  0  0  0  0  0  0
   39.8143   40.9437  -11.7888 C   0  0  2  0  0  0  0  0  0  0  0  0
   40.6969   42.0432  -12.2073 N   0  0  0  0  0  0  0  0  0  0  0  0
   34.5702   37.6332  -14.1962 C   0  0  2  0  0  0  0  0  0  0  0  0
   33.1672   37.7400  -13.9043 O   0  0  0  0  0  0  0  0  0  0  0  0
   31.4192   35.8134  -16.6559 C   0  0  1  0  0  0  0  0  0  0  0  0
   30.0640   36.2654  -16.5916 O   0  0  0  0  0  0  0  0  0  0  0  0
   39.6799   43.2788  -16.2271 C   0  0  2  0  0  0  0  0  0  0  0  0
   40.9677   43.8823  -16.3767 O   0  0  0  0  0  0  0  0  0  0  0  0
   38.4912   41.0512  -12.5572 C   0  0  2  0  0  0  0  0  0  0  0  0
   35.3018   37.0828  -12.9821 C   0  0  2  0  0  0  0  0  0  0  0  0
   35.6414   38.2137  -12.1509 O   0  0  0  0  0  0  0  0  0  0  0  0
   32.1272   36.5436  -17.7984 C   0  0  2  0  0  0  0  0  0  0  0  0
   33.4068   35.9402  -18.0098 O   0  0  0  0  0  0  0  0  0  0  0  0
   39.1934   43.4533  -14.7876 C   0  0  2  0  0  0  0  0  0  0  0  0
   37.9110   42.8185  -14.6158 O   0  0  0  0  0  0  0  0  0  0  0  0
   37.3940   40.1173  -12.0507 C   0  0  2  0  0  0  0  0  0  0  0  0
   36.1375   40.4994  -12.6336 O   0  0  0  0  0  0  0  0  0  0  0  0
   36.5587   36.3386  -13.4383 C   0  0  0  0  0  0  0  0  0  0  0  0
   36.1732   35.2046  -14.2183 O   0  0  0  0  0  0  0  0  0  0  0  0
   32.2872   38.0191  -17.4226 C   0  0  1  0  0  0  0  0  0  0  0  0
   33.0772   38.0997  -16.2231 O   0  0  0  0  0  0  0  0  0  0  0  0
   39.0744   44.9553  -14.5167 C   0  0  0  0  0  0  0  0  0  0  0  0
   40.4081   45.5732  -14.5056 O   0  0  0  0  0  0  0  0  0  0  0  0
   37.2974   40.1639  -10.5211 C   0  0  1  0  0  0  0  0  0  0  0  0
   36.3279   39.2186  -10.0634 O   0  0  0  0  0  0  0  0  0  0  0  0
   32.9705   38.8268  -18.5267 C   0  0  0  0  0  0  0  0  0  0  0  0
   33.5142   40.0660  -17.9537 N   0  0  0  0  0  0  0  0  0  0  0  0
  1  2  1  1  0  0  0
  1  7  1  0  0  0  0
  1 30  1  0  0  0  0
  3  4  1  1  0  0  0
  3  9  1  0  0  0  0
  3 39  1  0  0  0  0
  5 10  1  0  0  0  0
  5 26  1  0  0  0  0
  5 32  1  6  0  0  0
  6 12  1  0  0  0  0
  6 36  1  0  0  0  0
  6 19  1  1  0  0  0
  7  8  1  1  0  0  0
  7 14  1  0  0  0  0
  9 16  1  0  0  0  0
 10 11  1  6  0  0  0
 10 18  1  0  0  0  0
 12 13  1  6  0  0  0
 12 20  1  0  0  0  0
 14 15  1  6  0  0  0
 14 22  1  0  0  0  0
 16 17  1  6  0  0  0
 16 24  1  0  0  0  0
 18 19  1  1  0  0  0
 18 25  1  0  0  0  0
 20 21  1  1  0  0  0
 20 27  1  0  0  0  0
 22 23  1  1  0  0  0
 22 29  1  0  0  0  0
 24  2  1  6  0  0  0
 24 31  1  0  0  0  0
 25 26  1  0  0  0  0
 25 33  1  6  0  0  0
 27 28  1  1  0  0  0
 27 35  1  0  0  0  0
 29 30  1  0  0  0  0
 29 37  1  6  0  0  0
 31 32  1  6  0  0  0
 31 39  1  0  0  0  0
 33 34  1  0  0  0  0
 35 36  1  0  0  0  0
 35 41  1  6  0  0  0
 37 38  1  0  0  0  0
 39 40  1  1  0  0  0
 41 42  1  0  0  0  0
M  END
>  <CHROM.1>
175.56445715,-102.83038507,85.74046274,100.58725235,-151.64430711,-64.24019164
-67.84072776,149.62878077,-160.22871159,36.35005816,39.62828398,-14.43430177
-0.04706766,-0.72932704,-1.22066272

>  <Name>
3c44_lig

>  <RI>
0

>  <Rbt.Current_Directory>
/home/itssahil/PROJECTS/Mol_Feturizer/New_Systems/rnas/3c44

>  <Rbt.Executable>
rbdock ($Id: //depot/dev/client3/rdock/2013.1/src/exe/rbdock.cxx#4 $)

>  <Rbt.Library>
libRbt.so (2013.1, Build901 2013/11/27)

>  <Rbt.Parameter_File>
/export/apps/rDock/src/rDock_2013.1_src/data/scripts/dock_solv.prm

>  <Rbt.Receptor>
prm/pocket_docking_6.prm

>  <SCORE>
-4.56374

>  <SCORE.INTER>
-14.0995

>  <SCORE.INTER.CONST>
1

>  <SCORE.INTER.POLAR>
-2.52377

>  <SCORE.INTER.ROT>
9

>  <SCORE.INTER.SOLV>
11.808

>  <SCORE.INTER.VDW>
-14.5231

>  <SCORE.INTER.norm>
-0.335702

>  <SCORE.INTRA>
9.53572

>  <SCORE.INTRA.DIHEDRAL>
7.71159

>  <SCORE.INTRA.DIHEDRAL.0>
14.8538

>  <SCORE.INTRA.POLAR>
0

>  <SCORE.INTRA.POLAR.0>
0

>  <SCORE.INTRA.REPUL>
0

>  <SCORE.INTRA.REPUL.0>
0

>  <SCORE.INTRA.SOLV>
1.92657

>  <SCORE.INTRA.SOLV.lig_0>
-100.951

>  <SCORE.INTRA.VDW>
4.71664

>  <SCORE.INTRA.VDW.0>
-5.71388

>  <SCORE.INTRA.norm>
0.227041

>  <SCORE.RESTR>
0

>  <SCORE.RESTR.CAVITY>
0

>  <SCORE.RESTR.norm>
0

>  <SCORE.SYSTEM>
0

>  <SCORE.SYSTEM.CONST>
0

>  <SCORE.SYSTEM.DIHEDRAL>
0

>  <SCORE.SYSTEM.SOLV>
0

>  <SCORE.SYSTEM.norm>
0

>  <SCORE.heavy>
42

>  <SCORE.norm>
-0.108661

>  <RMSD>
8.950

$$$$
3c44_lig
 OpenBabel11021811463D
libRbt.so/2013.1/901 2013/11/27
 42 45  0  0  0  0  0  0  0  0999 V2000
   37.5645   42.9098  -14.6159 C   0  0  2  0  0  0  0  0  0  0  0  0
   38.1711   42.1292  -13.5745 O   0  0  0  0  0  0  0  0  0  0  0  0
   39.8419   43.5445  -10.0539 C   0  0  2  0  0  0  0  0  0  0  0  0
   40.2434   44.1371   -8.7688 N   0  0  0  0  0  0  0  0  0  0  0  0
   37.7263   39.4582  -11.1291 C   0  0  1  0  0  0  0  0  0  0  0  0
   38.3964   35.4607  -12.3445 C   0  0  1  0  0  0  0  0  0  0  0  0
   36.1164   42.4476  -14.8094 C   0  0  2  0  0  0  0  0  0  0  0  0
   35.3765   42.4972  -13.5401 N   0  0  0  0  0  0  0  0  0  0  0  0
   39.3096   44.6225  -11.0025 C   0  0  0  0  0  0  0  0  0  0  0  0
   37.8836   39.1093  -12.6098 C   0  0  2  0  0  0  0  0  0  0  0  0
   36.6068   38.8166  -13.1808 O   0  0  0  0  0  0  0  0  0  0  0  0
   38.4066   35.2870  -13.8668 C   0  0  2  0  0  0  0  0  0  0  0  0
   37.0422   35.5082  -14.3656 N   0  0  0  0  0  0  0  0  0  0  0  0
   36.0564   41.0235  -15.3675 C   0  0  1  0  0  0  0  0  0  0  0  0
   34.6987   40.6964  -15.6792 O   0  0  0  0  0  0  0  0  0  0  0  0
   39.0597   43.9642  -12.3635 C   0  0  2  0  0  0  0  0  0  0  0  0
   38.4887   44.9568  -13.2864 N   0  0  0  0  0  0  0  0  0  0  0  0
   38.6765   37.8098  -12.4848 C   0  0  2  0  0  0  0  0  0  0  0  0
   37.8391   36.7436  -12.0085 O   0  0  0  0  0  0  0  0  0  0  0  0
   38.8550   33.8733  -14.2598 C   0  0  1  0  0  0  0  0  0  0  0  0
   40.2502   33.7012  -13.9975 O   0  0  0  0  0  0  0  0  0  0  0  0
   36.9094   40.9258  -16.6336 C   0  0  2  0  0  0  0  0  0  0  0  0
   36.9395   39.5706  -17.0892 O   0  0  0  0  0  0  0  0  0  0  0  0
   38.1127   42.7604  -12.2834 C   0  0  2  0  0  0  0  0  0  0  0  0
   39.6728   38.1961  -11.4030 C   0  0  2  0  0  0  0  0  0  0  0  0
   39.0246   39.1827  -10.5712 O   0  0  0  0  0  0  0  0  0  0  0  0
   38.0742   32.8128  -13.4818 C   0  0  2  0  0  0  0  0  0  0  0  0
   36.7095   32.8371  -13.9098 O   0  0  0  0  0  0  0  0  0  0  0  0
   38.3318   41.3989  -16.3304 C   0  0  2  0  0  0  0  0  0  0  0  0
   38.3108   42.7530  -15.8371 O   0  0  0  0  0  0  0  0  0  0  0  0
   38.4610   41.7604  -11.1828 C   0  0  2  0  0  0  0  0  0  0  0  0
   37.3669   40.8455  -11.0075 O   0  0  0  0  0  0  0  0  0  0  0  0
   40.9346   38.7681  -12.0527 C   0  0  0  0  0  0  0  0  0  0  0  0
   41.5506   37.7542  -12.8499 O   0  0  0  0  0  0  0  0  0  0  0  0
   38.1709   33.1214  -11.9854 C   0  0  1  0  0  0  0  0  0  0  0  0
   37.6014   34.4215  -11.7515 O   0  0  0  0  0  0  0  0  0  0  0  0
   39.1321   41.3290  -17.6335 C   0  0  0  0  0  0  0  0  0  0  0  0
   39.2990   39.9287  -18.0485 O   0  0  0  0  0  0  0  0  0  0  0  0
   38.7584   42.4803   -9.8621 C   0  0  1  0  0  0  0  0  0  0  0  0
   39.1680   41.5349   -8.8714 O   0  0  0  0  0  0  0  0  0  0  0  0
   37.4305   32.0903  -11.1327 C   0  0  0  0  0  0  0  0  0  0  0  0
   36.0384   32.5241  -10.9493 N   0  0  0  0  0  0  0  0  0  0  0  0
  1  2  1  1  0  0  0
  1  7  1  0  0  0  0
  1 30  1  0  0  0  0
  3  4  1  1  0  0  0
  3  9  1  0  0  0  0
  3 39  1  0  0  0  0
  5 10  1  0  0  0  0
  5 26  1  0  0  0  0
  5 32  1  6  0  0  0
  6 12  1  0  0  0  0
  6 36  1  0  0  0  0
  6 19  1  6  0  0  0
  7  8  1  1  0  0  0
  7 14  1  0  0  0  0
  9 16  1  0  0  0  0
 10 11  1  1  0  0  0
 10 18  1  0  0  0  0
 12 13  1  1  0  0  0
 12 20  1  0  0  0  0
 14 15  1  6  0  0  0
 14 22  1  0  0  0  0
 16 17  1  6  0  0  0
 16 24  1  0  0  0  0
 18 19  1  1  0  0  0
 18 25  1  0  0  0  0
 20 21  1  1  0  0  0
 20 27  1  0  0  0  0
 22 23  1  1  0  0  0
 22 29  1  0  0  0  0
 24  2  1  6  0  0  0
 24 31  1  0  0  0  0
 25 26  1  0  0  0  0
 25 33  1  6  0  0  0
 27 28  1  6  0  0  0
 27 35  1  0  0  0  0
 29 30  1  0  0  0  0
 29 37  1  6  0  0  0
 31 32  1  1  0  0  0
 31 39  1  0  0  0  0
 33 34  1  0  0  0  0
 35 36  1  0  0  0  0
 35 41  1  1  0  0  0
 37 38  1  0  0  0  0
 39 40  1  1  0  0  0
 41 42  1  0  0  0  0
M  END
>  <CHROM.1>
-95.16532897,-77.47319859,-65.15430091,158.76073373,-69.36616644,-63.06546833
-67.03944334,124.83333062,-89.80237006,38.15507496,39.15125936,-13.07216151
1.43482766,-1.29095819,-0.13845871

>  <Name>
3c44_lig

>  <RI>
0

>  <Rbt.Current_Directory>
/home/itssahil/PROJECTS/Mol_Feturizer/New_Systems/rnas/3c44

>  <Rbt.Executable>
rbdock ($Id: //depot/dev/client3/rdock/2013.1/src/exe/rbdock.cxx#4 $)

>  <Rbt.Library>
libRbt.so (2013.1, Build901 2013/11/27)

>  <Rbt.Parameter_File>
/export/apps/rDock/src/rDock_2013.1_src/data/scripts/dock_solv.prm

>  <Rbt.Receptor>
prm/pocket_docking_7.prm

>  <SCORE>
-9.82293

>  <SCORE.INTER>
-15.7355

>  <SCORE.INTER.CONST>
1

>  <SCORE.INTER.POLAR>
-1.93085

>  <SCORE.INTER.ROT>
9

>  <SCORE.INTER.SOLV>
18.2477

>  <SCORE.INTER.VDW>
-19.7368

>  <SCORE.INTER.norm>
-0.374655

>  <SCORE.INTRA>
5.91258

>  <SCORE.INTRA.DIHEDRAL>
3.83767

>  <SCORE.INTRA.DIHEDRAL.0>
14.8538

>  <SCORE.INTRA.POLAR>
0

>  <SCORE.INTRA.POLAR.0>
0

>  <SCORE.INTRA.REPUL>
0

>  <SCORE.INTRA.REPUL.0>
0

>  <SCORE.INTRA.SOLV>
2.18514

>  <SCORE.INTRA.SOLV.lig_0>
-100.951

>  <SCORE.INTRA.VDW>
2.90117

>  <SCORE.INTRA.VDW.0>
-5.71388

>  <SCORE.INTRA.norm>
0.140776

>  <SCORE.RESTR>
0

>  <SCORE.RESTR.CAVITY>
0

>  <SCORE.RESTR.norm>
0

>  <SCORE.SYSTEM>
0

>  <SCORE.SYSTEM.CONST>
0

>  <SCORE.SYSTEM.DIHEDRAL>
0

>  <SCORE.SYSTEM.SOLV>
0

>  <SCORE.SYSTEM.norm>
0

>  <SCORE.heavy>
42

>  <SCORE.norm>
-0.233879

>  <RMSD>
8.952

$$$$
3c44_lig
 OpenBabel11021811463D
libRbt.so/2013.1/901 2013/11/27
 42 45  0  0  0  0  0  0  0  0999 V2000
   38.6106   43.0585  -10.7122 C   0  0  2  0  0  0  0  0  0  0  0  0
   38.5717   43.2231  -12.1381 O   0  0  0  0  0  0  0  0  0  0  0  0
   40.4448   46.0121  -14.5676 C   0  0  2  0  0  0  0  0  0  0  0  0
   41.2870   46.9564  -15.3179 N   0  0  0  0  0  0  0  0  0  0  0  0
   39.4142   41.2897  -14.7229 C   0  0  1  0  0  0  0  0  0  0  0  0
   36.2775   39.0289  -16.2522 C   0  0  1  0  0  0  0  0  0  0  0  0
   39.1845   41.6765  -10.3830 C   0  0  2  0  0  0  0  0  0  0  0  0
   40.4927   41.4857  -11.0259 N   0  0  0  0  0  0  0  0  0  0  0  0
   40.5068   46.3088  -13.0665 C   0  0  0  0  0  0  0  0  0  0  0  0
   38.6597   41.8730  -15.9186 C   0  0  2  0  0  0  0  0  0  0  0  0
   37.6106   42.7296  -15.4632 O   0  0  0  0  0  0  0  0  0  0  0  0
   35.4468   39.5351  -17.4361 C   0  0  2  0  0  0  0  0  0  0  0  0
   34.5726   40.6152  -16.9580 N   0  0  0  0  0  0  0  0  0  0  0  0
   38.2392   40.5596  -10.8326 C   0  0  1  0  0  0  0  0  0  0  0  0
   38.7387   39.3029  -10.3652 O   0  0  0  0  0  0  0  0  0  0  0  0
   39.4933   45.3960  -12.3682 C   0  0  2  0  0  0  0  0  0  0  0  0
   39.5674   45.6088  -10.9149 N   0  0  0  0  0  0  0  0  0  0  0  0
   38.0420   40.5944  -16.4812 C   0  0  2  0  0  0  0  0  0  0  0  0
   36.9710   40.1316  -15.6422 O   0  0  0  0  0  0  0  0  0  0  0  0
   34.5764   38.4151  -18.0210 C   0  0  1  0  0  0  0  0  0  0  0  0
   35.3890   37.4553  -18.7017 O   0  0  0  0  0  0  0  0  0  0  0  0
   36.8418   40.7998  -10.2584 C   0  0  2  0  0  0  0  0  0  0  0  0
   35.9371   39.8171  -10.7692 O   0  0  0  0  0  0  0  0  0  0  0  0
   39.7223   43.9083  -12.6630 C   0  0  2  0  0  0  0  0  0  0  0  0
   39.2231   39.6434  -16.3690 C   0  0  2  0  0  0  0  0  0  0  0  0
   40.0144   40.0907  -15.2469 O   0  0  0  0  0  0  0  0  0  0  0  0
   33.7883   37.7006  -16.9219 C   0  0  2  0  0  0  0  0  0  0  0  0
   32.8162   38.6043  -16.3884 O   0  0  0  0  0  0  0  0  0  0  0  0
   36.3600   42.1971  -10.6516 C   0  0  2  0  0  0  0  0  0  0  0  0
   37.2830   43.1946  -10.1717 O   0  0  0  0  0  0  0  0  0  0  0  0
   39.9089   43.5837  -14.1437 C   0  0  2  0  0  0  0  0  0  0  0  0
   40.3984   42.2394  -14.2780 O   0  0  0  0  0  0  0  0  0  0  0  0
   40.0352   39.6838  -17.6653 C   0  0  0  0  0  0  0  0  0  0  0  0
   41.1762   38.8339  -17.5288 O   0  0  0  0  0  0  0  0  0  0  0  0
   34.7582   37.2506  -15.8262 C   0  0  1  0  0  0  0  0  0  0  0  0
   35.4078   38.4155  -15.2874 O   0  0  0  0  0  0  0  0  0  0  0  0
   34.9834   42.4093  -10.0165 C   0  0  0  0  0  0  0  0  0  0  0  0
   35.0952   42.3878   -8.5509 O   0  0  0  0  0  0  0  0  0  0  0  0
   40.8863   44.5651  -14.8011 C   0  0  1  0  0  0  0  0  0  0  0  0
   40.9776   44.2994  -16.2026 O   0  0  0  0  0  0  0  0  0  0  0  0
   34.0483   36.5057  -14.6949 C   0  0  0  0  0  0  0  0  0  0  0  0
   33.0923   37.4122  -14.0440 N   0  0  0  0  0  0  0  0  0  0  0  0
  1  2  1  6  0  0  0
  1  7  1  0  0  0  0
  1 30  1  0  0  0  0
  3  4  1  6  0  0  0
  3  9  1  0  0  0  0
  3 39  1  0  0  0  0
  5 10  1  0  0  0  0
  5 26  1  0  0  0  0
  5 32  1  6  0  0  0
  6 12  1  0  0  0  0
  6 36  1  0  0  0  0
  6 19  1  1  0  0  0
  7  8  1  6  0  0  0
  7 14  1  0  0  0  0
  9 16  1  0  0  0  0
 10 11  1  1  0  0  0
 10 18  1  0  0  0  0
 12 13  1  1  0  0  0
 12 20  1  0  0  0  0
 14 15  1  1  0  0  0
 14 22  1  0  0  0  0
 16 17  1  1  0  0  0
 16 24  1  0  0  0  0
 18 19  1  1  0  0  0
 18 25  1  0  0  0  0
 20 21  1  1  0  0  0
 20 27  1  0  0  0  0
 22 23  1  6  0  0  0
 22 29  1  0  0  0  0
 24  2  1  6  0  0  0
 24 31  1  0  0  0  0
 25 26  1  0  0  0  0
 25 33  1  6  0  0  0
 27 28  1  1  0  0  0
 27 35  1  0  0  0  0
 29 30  1  0  0  0  0
 29 37  1  1  0  0  0
 31 32  1  1  0  0  0
 31 39  1  0  0  0  0
 33 34  1  0  0  0  0
 35 36  1  0  0  0  0
 35 41  1  1  0  0  0
 37 38  1  0  0  0  0
 39 40  1  6  0  0  0
 41 42  1  0  0  0  0
M  END
>  <CHROM.1>
-95.23740497,46.95162572,-71.85944352,172.71048305,-78.02601011,177.39734469
63.62043330,104.81657022,-62.68350169,37.72332829,41.27577397,-14.03838845
0.77965413,0.72352068,1.18711874

>  <Name>
3c44_lig

>  <RI>
0

>  <Rbt.Current_Directory>
/home/itssahil/PROJECTS/Mol_Feturizer/New_Systems/rnas/3c44

>  <Rbt.Executable>
rbdock ($Id: //depot/dev/client3/rdock/2013.1/src/exe/rbdock.cxx#4 $)

>  <Rbt.Library>
libRbt.so (2013.1, Build901 2013/11/27)

>  <Rbt.Parameter_File>
/export/apps/rDock/src/rDock_2013.1_src/data/scripts/dock_solv.prm

>  <Rbt.Receptor>
prm/pocket_docking_5.prm

>  <SCORE>
-7.55195

>  <SCORE.INTER>
-11.5225

>  <SCORE.INTER.CONST>
1

>  <SCORE.INTER.POLAR>
-2.34186

>  <SCORE.INTER.ROT>
9

>  <SCORE.INTER.SOLV>
13.2813

>  <SCORE.INTER.VDW>
-13.9026

>  <SCORE.INTER.norm>
-0.274346

>  <SCORE.INTRA>
3.96985

>  <SCORE.INTRA.DIHEDRAL>
-0.419303

>  <SCORE.INTRA.DIHEDRAL.0>
14.8538

>  <SCORE.INTRA.POLAR>
0

>  <SCORE.INTRA.POLAR.0>
0

>  <SCORE.INTRA.REPUL>
0

>  <SCORE.INTRA.REPUL.0>
0

>  <SCORE.INTRA.SOLV>
1.06682

>  <SCORE.INTRA.SOLV.lig_0>
-100.951

>  <SCORE.INTRA.VDW>
3.6461

>  <SCORE.INTRA.VDW.0>
-5.71388

>  <SCORE.INTRA.norm>
0.0945203

>  <SCORE.RESTR>
0.000739287

>  <SCORE.RESTR.CAVITY>
0.000739287

>  <SCORE.RESTR.norm>
1.76021e-05

>  <SCORE.SYSTEM>
0

>  <SCORE.SYSTEM.CONST>
0

>  <SCORE.SYSTEM.DIHEDRAL>
0

>  <SCORE.SYSTEM.SOLV>
0

>  <SCORE.SYSTEM.norm>
0

>  <SCORE.heavy>
42

>  <SCORE.norm>
-0.179808

>  <RMSD>
8.955

$$$$
3c44_lig
 OpenBabel11021811463D
libRbt.so/2013.1/901 2013/11/27
 42 45  0  0  0  0  0  0  0  0999 V2000
   37.0853   41.0037  -11.2985 C   0  0  2  0  0  0  0  0  0  0  0  0
   37.9481   41.7629  -12.1594 O   0  0  0  0  0  0  0  0  0  0  0  0
   40.6591   40.6079  -15.0759 C   0  0  2  0  0  0  0  0  0  0  0  0
   41.7257   40.0989  -15.9517 N   0  0  0  0  0  0  0  0  0  0  0  0
   36.7049   38.5380  -13.7626 C   0  0  1  0  0  0  0  0  0  0  0  0
   32.7639   37.8760  -15.1238 C   0  0  1  0  0  0  0  0  0  0  0  0
   35.8573   41.8502  -10.9472 C   0  0  2  0  0  0  0  0  0  0  0  0
   35.1870   42.3311  -12.1640 N   0  0  0  0  0  0  0  0  0  0  0  0
   41.2512   41.4192  -13.9199 C   0  0  0  0  0  0  0  0  0  0  0  0
   35.6145   39.5732  -13.4823 C   0  0  2  0  0  0  0  0  0  0  0  0
   34.9884   39.2955  -12.2283 O   0  0  0  0  0  0  0  0  0  0  0  0
   32.1980   36.4580  -14.9944 C   0  0  2  0  0  0  0  0  0  0  0  0
   33.2575   35.5041  -15.3500 N   0  0  0  0  0  0  0  0  0  0  0  0
   36.2392   43.0517  -10.0790 C   0  0  1  0  0  0  0  0  0  0  0  0
   35.0490   43.7181   -9.6469 O   0  0  0  0  0  0  0  0  0  0  0  0
   40.0869   42.0443  -13.1442 C   0  0  2  0  0  0  0  0  0  0  0  0
   40.6143   42.7831  -11.9870 N   0  0  0  0  0  0  0  0  0  0  0  0
   34.6391   39.2296  -14.6063 C   0  0  2  0  0  0  0  0  0  0  0  0
   33.9607   37.9923  -14.3345 O   0  0  0  0  0  0  0  0  0  0  0  0
   31.0059   36.2493  -15.9375 C   0  0  1  0  0  0  0  0  0  0  0  0
   29.8729   36.9935  -15.4822 O   0  0  0  0  0  0  0  0  0  0  0  0
   37.0321   42.5794   -8.8590 C   0  0  2  0  0  0  0  0  0  0  0  0
   37.4808   43.7118   -8.1098 O   0  0  0  0  0  0  0  0  0  0  0  0
   39.0705   41.0081  -12.6486 C   0  0  2  0  0  0  0  0  0  0  0  0
   35.6066   39.0357  -15.7632 C   0  0  2  0  0  0  0  0  0  0  0  0
   36.8498   38.5704  -15.1946 O   0  0  0  0  0  0  0  0  0  0  0  0
   31.3466   36.6943  -17.3607 C   0  0  2  0  0  0  0  0  0  0  0  0
   32.3297   35.8060  -17.8998 O   0  0  0  0  0  0  0  0  0  0  0  0
   38.2363   41.7559   -9.3185 C   0  0  2  0  0  0  0  0  0  0  0  0
   37.7981   40.6302  -10.1045 O   0  0  0  0  0  0  0  0  0  0  0  0
   38.6209   40.0109  -13.7144 C   0  0  2  0  0  0  0  0  0  0  0  0
   37.9121   38.9303  -13.0862 O   0  0  0  0  0  0  0  0  0  0  0  0
   35.8003   40.3658  -16.4944 C   0  0  0  0  0  0  0  0  0  0  0  0
   34.5227   40.8770  -16.8812 O   0  0  0  0  0  0  0  0  0  0  0  0
   31.8856   38.1266  -17.3189 C   0  0  1  0  0  0  0  0  0  0  0  0
   33.0694   38.1432  -16.5018 O   0  0  0  0  0  0  0  0  0  0  0  0
   38.9690   41.2666   -8.0667 C   0  0  0  0  0  0  0  0  0  0  0  0
   40.1611   40.4960   -8.4487 O   0  0  0  0  0  0  0  0  0  0  0  0
   39.8219   39.4651  -14.4959 C   0  0  1  0  0  0  0  0  0  0  0  0
   39.3725   38.6040  -15.5445 O   0  0  0  0  0  0  0  0  0  0  0  0
   32.2315   38.6559  -18.7112 C   0  0  0  0  0  0  0  0  0  0  0  0
   33.3426   37.8698  -19.2654 N   0  0  0  0  0  0  0  0  0  0  0  0
  1  2  1  6  0  0  0
  1  7  1  0  0  0  0
  1 30  1  0  0  0  0
  3  4  1  1  0  0  0
  3  9  1  0  0  0  0
  3 39  1  0  0  0  0
  5 10  1  0  0  0  0
  5 26  1  0  0  0  0
  5 32  1  1  0  0  0
  6 12  1  0  0  0  0
  6 36  1  0  0  0  0
  6 19  1  1  0  0  0
  7  8  1  6  0  0  0
  7 14  1  0  0  0  0
  9 16  1  0  0  0  0
 10 11  1  1  0  0  0
 10 18  1  0  0  0  0
 12 13  1  6  0  0  0
 12 20  1  0  0  0  0
 14 15  1  1  0  0  0
 14 22  1  0  0  0  0
 16 17  1  1  0  0  0
 16 24  1  0  0  0  0
 18 19  1  1  0  0  0
 18 25  1  0  0  0  0
 20 21  1  1  0  0  0
 20 27  1  0  0  0  0
 22 23  1  6  0  0  0
 22 29  1  0  0  0  0
 24  2  1  6  0  0  0
 24 31  1  0  0  0  0
 25 26  1  0  0  0  0
 25 33  1  1  0  0  0
 27 28  1  1  0  0  0
 27 35  1  0  0  0  0
 29 30  1  0  0  0  0
 29 37  1  1  0  0  0
 31 32  1  1  0  0  0
 31 39  1  0  0  0  0
 33 34  1  0  0  0  0
 35 36  1  0  0  0  0
 35 41  1  6  0  0  0
 37 38  1  0  0  0  0
 39 40  1  6  0  0  0
 41 42  1  0  0  0  0
M  END
>  <CHROM.1>
-174.45811373,-75.68909697,170.31416099,161.19041947,-162.17582572,-54.49661240
-178.49107984,135.85046398,-65.01188156,36.13501863,39.78178888,-13.68487944
0.85936036,0.21389998,1.12120761

>  <Name>
3c44_lig

>  <RI>
0

>  <Rbt.Current_Directory>
/home/itssahil/PROJECTS/Mol_Feturizer/New_Systems/rnas/3c44

>  <Rbt.Executable>
rbdock ($Id: //depot/dev/client3/rdock/2013.1/src/exe/rbdock.cxx#4 $)

>  <Rbt.Library>
libRbt.so (2013.1, Build901 2013/11/27)

>  <Rbt.Parameter_File>
/export/apps/rDock/src/rDock_2013.1_src/data/scripts/dock_solv.prm

>  <Rbt.Receptor>
prm/pocket_docking_6.prm

>  <SCORE>
-10.1784

>  <SCORE.INTER>
-10.8882

>  <SCORE.INTER.CONST>
1

>  <SCORE.INTER.POLAR>
-1.41507

>  <SCORE.INTER.ROT>
9

>  <SCORE.INTER.SOLV>
14.1939

>  <SCORE.INTER.VDW>
-16.8732

>  <SCORE.INTER.norm>
-0.259243

>  <SCORE.INTRA>
0.709821

>  <SCORE.INTRA.DIHEDRAL>
-3.5151

>  <SCORE.INTRA.DIHEDRAL.0>
14.8538

>  <SCORE.INTRA.POLAR>
0

>  <SCORE.INTRA.POLAR.0>
0

>  <SCORE.INTRA.REPUL>
0

>  <SCORE.INTRA.REPUL.0>
0

>  <SCORE.INTRA.SOLV>
1.53183

>  <SCORE.INTRA.SOLV.lig_0>
-100.951

>  <SCORE.INTRA.VDW>
1.70146

>  <SCORE.INTRA.VDW.0>
-5.71388

>  <SCORE.INTRA.norm>
0.0169005

>  <SCORE.RESTR>
0

>  <SCORE.RESTR.CAVITY>
0

>  <SCORE.RESTR.norm>
0

>  <SCORE.SYSTEM>
0

>  <SCORE.SYSTEM.CONST>
0

>  <SCORE.SYSTEM.DIHEDRAL>
0

>  <SCORE.SYSTEM.SOLV>
0

>  <SCORE.SYSTEM.norm>
0

>  <SCORE.heavy>
42

>  <SCORE.norm>
-0.242342

>  <RMSD>
8.977

$$$$
3c44_lig
 OpenBabel11021811463D
libRbt.so/2013.1/901 2013/11/27
 42 45  0  0  0  0  0  0  0  0999 V2000
   39.2921   42.0634  -10.9542 C   0  0  2  0  0  0  0  0  0  0  0  0
   39.3268   41.7913  -12.3636 O   0  0  0  0  0  0  0  0  0  0  0  0
   41.6197   43.0461  -15.5820 C   0  0  2  0  0  0  0  0  0  0  0  0
   42.5887   43.5250  -16.5798 N   0  0  0  0  0  0  0  0  0  0  0  0
   41.0531   38.7448  -13.9495 C   0  0  1  0  0  0  0  0  0  0  0  0
   40.4899   34.8594  -15.4324 C   0  0  1  0  0  0  0  0  0  0  0  0
   39.7613   40.8195  -10.1923 C   0  0  2  0  0  0  0  0  0  0  0  0
   41.0818   40.3813  -10.6671 N   0  0  0  0  0  0  0  0  0  0  0  0
   41.4291   44.0847  -14.4729 C   0  0  0  0  0  0  0  0  0  0  0  0
   41.8114   37.5915  -13.2908 C   0  0  2  0  0  0  0  0  0  0  0  0
   43.0903   37.4325  -13.9079 O   0  0  0  0  0  0  0  0  0  0  0  0
   39.3285   35.0624  -16.4111 C   0  0  2  0  0  0  0  0  0  0  0  0
   38.3908   36.0274  -15.8206 N   0  0  0  0  0  0  0  0  0  0  0  0
   38.7673   39.6655  -10.3445 C   0  0  1  0  0  0  0  0  0  0  0  0
   39.1641   38.5863   -9.4930 O   0  0  0  0  0  0  0  0  0  0  0  0
   40.3005   43.5918  -13.5611 C   0  0  2  0  0  0  0  0  0  0  0  0
   40.1290   44.5352  -12.4460 N   0  0  0  0  0  0  0  0  0  0  0  0
   40.9163   36.4254  -13.7055 C   0  0  2  0  0  0  0  0  0  0  0  0
   41.0726   36.1328  -15.1037 O   0  0  0  0  0  0  0  0  0  0  0  0
   38.5862   33.7449  -16.6704 C   0  0  1  0  0  0  0  0  0  0  0  0
   39.3954   32.8613  -17.4511 O   0  0  0  0  0  0  0  0  0  0  0  0
   37.3641   40.1343   -9.9553 C   0  0  2  0  0  0  0  0  0  0  0  0
   36.4218   39.0876  -10.2034 O   0  0  0  0  0  0  0  0  0  0  0  0
   40.5582   42.1918  -12.9899 C   0  0  2  0  0  0  0  0  0  0  0  0
   39.5427   37.0307  -13.4630 C   0  0  2  0  0  0  0  0  0  0  0  0
   39.6719   38.4546  -13.6658 O   0  0  0  0  0  0  0  0  0  0  0  0
   38.2256   33.0494  -15.3567 C   0  0  2  0  0  0  0  0  0  0  0  0
   37.2419   33.8321  -14.6742 O   0  0  0  0  0  0  0  0  0  0  0  0
   36.9905   41.3690  -10.7770 C   0  0  2  0  0  0  0  0  0  0  0  0
   37.9534   42.4195  -10.5616 O   0  0  0  0  0  0  0  0  0  0  0  0
   40.9899   41.1598  -14.0297 C   0  0  2  0  0  0  0  0  0  0  0  0
   41.4788   39.9860  -13.3604 O   0  0  0  0  0  0  0  0  0  0  0  0
   39.0924   36.7174  -12.0345 C   0  0  0  0  0  0  0  0  0  0  0  0
   37.7427   37.1556  -11.8632 O   0  0  0  0  0  0  0  0  0  0  0  0
   39.4886   32.9141  -14.5020 C   0  0  1  0  0  0  0  0  0  0  0  0
   40.0010   34.2318  -14.2363 O   0  0  0  0  0  0  0  0  0  0  0  0
   35.6036   41.8286  -10.3202 C   0  0  0  0  0  0  0  0  0  0  0  0
   35.2217   43.0594  -11.0273 O   0  0  0  0  0  0  0  0  0  0  0  0
   42.0769   41.7294  -14.9489 C   0  0  1  0  0  0  0  0  0  0  0  0
   42.4019   40.7811  -15.9678 O   0  0  0  0  0  0  0  0  0  0  0  0
   39.2160   32.2064  -13.1742 C   0  0  0  0  0  0  0  0  0  0  0  0
   38.8036   30.8212  -13.4400 N   0  0  0  0  0  0  0  0  0  0  0  0
  1  2  1  6  0  0  0
  1  7  1  0  0  0  0
  1 30  1  0  0  0  0
  3  4  1  6  0  0  0
  3  9  1  0  0  0  0
  3 39  1  0  0  0  0
  5 10  1  0  0  0  0
  5 26  1  0  0  0  0
  5 32  1  1  0  0  0
  6 12  1  0  0  0  0
  6 36  1  0  0  0  0
  6 19  1  1  0  0  0
  7  8  1  6  0  0  0
  7 14  1  0  0  0  0
  9 16  1  0  0  0  0
 10 11  1  6  0  0  0
 10 18  1  0  0  0  0
 12 13  1  1  0  0  0
 12 20  1  0  0  0  0
 14 15  1  1  0  0  0
 14 22  1  0  0  0  0
 16 17  1  1  0  0  0
 16 24  1  0  0  0  0
 18 19  1  6  0  0  0
 18 25  1  0  0  0  0
 20 21  1  6  0  0  0
 20 27  1  0  0  0  0
 22 23  1  6  0  0  0
 22 29  1  0  0  0  0
 24  2  1  6  0  0  0
 24 31  1  0  0  0  0
 25 26  1  0  0  0  0
 25 33  1  1  0  0  0
 27 28  1  1  0  0  0
 27 35  1  0  0  0  0
 29 30  1  0  0  0  0
 29 37  1  1  0  0  0
 31 32  1  1  0  0  0
 31 39  1  0  0  0  0
 33 34  1  0  0  0  0
 35 36  1  0  0  0  0
 35 41  1  1  0  0  0
 37 38  1  0  0  0  0
 39 40  1  6  0  0  0
 41 42  1  0  0  0  0
M  END
>  <CHROM.1>
-93.37935500,171.07475457,116.44896336,166.33481802,-95.24595736,-173.47442943
176.95489408,138.29021650,64.67887547,39.58926378,38.58016463,-13.29472662
1.54209951,0.80948930,0.31229856

>  <Name>
3c44_lig

>  <RI>
0

>  <Rbt.Current_Directory>
/home/itssahil/PROJECTS/Mol_Feturizer/New_Systems/rnas/3c44

>  <Rbt.Executable>
rbdock ($Id: //depot/dev/client3/rdock/2013.1/src/exe/rbdock.cxx#4 $)

>  <Rbt.Library>
libRbt.so (2013.1, Build901 2013/11/27)

>  <Rbt.Parameter_File>
/export/apps/rDock/src/rDock_2013.1_src/data/scripts/dock_solv.prm

>  <Rbt.Receptor>
prm/pocket_docking_4.prm

>  <SCORE>
-7.47806

>  <SCORE.INTER>
-15.1205

>  <SCORE.INTER.CONST>
1

>  <SCORE.INTER.POLAR>
-0.800103

>  <SCORE.INTER.ROT>
9

>  <SCORE.INTER.SOLV>
14.1351

>  <SCORE.INTER.VDW>
-21.725

>  <SCORE.INTER.norm>
-0.360011

>  <SCORE.INTRA>
7.64241

>  <SCORE.INTRA.DIHEDRAL>
8.61459

>  <SCORE.INTRA.DIHEDRAL.0>
14.8538

>  <SCORE.INTRA.POLAR>
0

>  <SCORE.INTRA.POLAR.0>
0

>  <SCORE.INTRA.REPUL>
0.0014221

>  <SCORE.INTRA.REPUL.0>
0

>  <SCORE.INTRA.SOLV>
2.74104

>  <SCORE.INTRA.SOLV.lig_0>
-100.951

>  <SCORE.INTRA.VDW>
1.95748

>  <SCORE.INTRA.VDW.0>
-5.71388

>  <SCORE.INTRA.norm>
0.181962

>  <SCORE.RESTR>
0

>  <SCORE.RESTR.CAVITY>
0

>  <SCORE.RESTR.norm>
0

>  <SCORE.SYSTEM>
0

>  <SCORE.SYSTEM.CONST>
0

>  <SCORE.SYSTEM.DIHEDRAL>
0

>  <SCORE.SYSTEM.SOLV>
0

>  <SCORE.SYSTEM.norm>
0

>  <SCORE.heavy>
42

>  <SCORE.norm>
-0.178049

>  <RMSD>
8.981

$$$$
3c44_lig
 OpenBabel11021811463D
libRbt.so/2013.1/901 2013/11/27
 42 45  0  0  0  0  0  0  0  0999 V2000
   39.5004   42.1005  -13.6153 C   0  0  2  0  0  0  0  0  0  0  0  0
   39.2923   41.8652  -12.2142 O   0  0  0  0  0  0  0  0  0  0  0  0
   37.2571   39.2069   -9.7686 C   0  0  2  0  0  0  0  0  0  0  0  0
   36.3971   38.2436   -9.0641 N   0  0  0  0  0  0  0  0  0  0  0  0
   38.6020   38.0414  -13.4897 C   0  0  1  0  0  0  0  0  0  0  0  0
   36.1376   35.6229  -15.3526 C   0  0  1  0  0  0  0  0  0  0  0  0
   40.5319   43.2205  -13.7873 C   0  0  2  0  0  0  0  0  0  0  0  0
   41.7708   42.9079  -13.0603 N   0  0  0  0  0  0  0  0  0  0  0  0
   36.4414   40.4138  -10.2410 C   0  0  0  0  0  0  0  0  0  0  0  0
   38.7204   38.2535  -14.9997 C   0  0  2  0  0  0  0  0  0  0  0  0
   37.8905   39.3433  -15.4062 O   0  0  0  0  0  0  0  0  0  0  0  0
   34.6356   35.6841  -15.6496 C   0  0  2  0  0  0  0  0  0  0  0  0
   34.0021   36.5522  -14.6475 N   0  0  0  0  0  0  0  0  0  0  0  0
   39.9858   44.5614  -13.2905 C   0  0  1  0  0  0  0  0  0  0  0  0
   40.9164   45.5986  -13.6153 O   0  0  0  0  0  0  0  0  0  0  0  0
   37.4199   41.4396  -10.8226 C   0  0  2  0  0  0  0  0  0  0  0  0
   36.6661   42.5897  -11.3440 N   0  0  0  0  0  0  0  0  0  0  0  0
   38.0966   36.9492  -15.4921 C   0  0  2  0  0  0  0  0  0  0  0  0
   36.6732   36.9566  -15.2948 O   0  0  0  0  0  0  0  0  0  0  0  0
   33.9985   34.2905  -15.5720 C   0  0  1  0  0  0  0  0  0  0  0  0
   34.4207   33.4864  -16.6766 O   0  0  0  0  0  0  0  0  0  0  0  0
   38.6410   44.8537  -13.9584 C   0  0  2  0  0  0  0  0  0  0  0  0
   38.0827   46.0510  -13.4108 O   0  0  0  0  0  0  0  0  0  0  0  0
   38.2911   40.8674  -11.9478 C   0  0  2  0  0  0  0  0  0  0  0  0
   38.7376   35.9568  -14.5348 C   0  0  2  0  0  0  0  0  0  0  0  0
   38.9912   36.6679  -13.3039 O   0  0  0  0  0  0  0  0  0  0  0  0
   34.3839   33.5816  -14.2725 C   0  0  2  0  0  0  0  0  0  0  0  0
   33.7729   34.2651  -13.1745 O   0  0  0  0  0  0  0  0  0  0  0  0
   37.6855   43.6836  -13.7193 C   0  0  2  0  0  0  0  0  0  0  0  0
   38.2535   42.4642  -14.2366 O   0  0  0  0  0  0  0  0  0  0  0  0
   38.9457   39.5282  -11.6152 C   0  0  2  0  0  0  0  0  0  0  0  0
   39.4873   38.9523  -12.8150 O   0  0  0  0  0  0  0  0  0  0  0  0
   40.0388   35.4292  -15.1432 C   0  0  0  0  0  0  0  0  0  0  0  0
   39.7441   34.7673  -16.3753 O   0  0  0  0  0  0  0  0  0  0  0  0
   35.9082   33.5966  -14.1303 C   0  0  1  0  0  0  0  0  0  0  0  0
   36.3478   34.9658  -14.0926 O   0  0  0  0  0  0  0  0  0  0  0  0
   36.3746   43.9991  -14.4442 C   0  0  0  0  0  0  0  0  0  0  0  0
   35.3058   43.1121  -13.9626 O   0  0  0  0  0  0  0  0  0  0  0  0
   37.9337   38.5655  -10.9828 C   0  0  1  0  0  0  0  0  0  0  0  0
   38.5862   37.3533  -10.5983 O   0  0  0  0  0  0  0  0  0  0  0  0
   36.3782   32.8853  -12.8609 C   0  0  0  0  0  0  0  0  0  0  0  0
   36.0654   33.7216  -11.6937 N   0  0  0  0  0  0  0  0  0  0  0  0
  1  2  1  1  0  0  0
  1  7  1  0  0  0  0
  1 30  1  0  0  0  0
  3  4  1  6  0  0  0
  3  9  1  0  0  0  0
  3 39  1  0  0  0  0
  5 10  1  0  0  0  0
  5 26  1  0  0  0  0
  5 32  1  1  0  0  0
  6 12  1  0  0  0  0
  6 36  1  0  0  0  0
  6 19  1  1  0  0  0
  7  8  1  1  0  0  0
  7 14  1  0  0  0  0
  9 16  1  0  0  0  0
 10 11  1  6  0  0  0
 10 18  1  0  0  0  0
 12 13  1  1  0  0  0
 12 20  1  0  0  0  0
 14 15  1  6  0  0  0
 14 22  1  0  0  0  0
 16 17  1  6  0  0  0
 16 24  1  0  0  0  0
 18 19  1  1  0  0  0
 18 25  1  0  0  0  0
 20 21  1  6  0  0  0
 20 27  1  0  0  0  0
 22 23  1  1  0  0  0
 22 29  1  0  0  0  0
 24  2  1  1  0  0  0
 24 31  1  0  0  0  0
 25 26  1  0  0  0  0
 25 33  1  6  0  0  0
 27 28  1  1  0  0  0
 27 35  1  0  0  0  0
 29 30  1  0  0  0  0
 29 37  1  6  0  0  0
 31 32  1  6  0  0  0
 31 39  1  0  0  0  0
 33 34  1  0  0  0  0
 35 36  1  0  0  0  0
 35 41  1  1  0  0  0
 37 38  1  0  0  0  0
 39 40  1  1  0  0  0
 41 42  1  0  0  0  0
M  END
>  <CHROM.1>
177.35437016,140.37459515,-159.59443890,-161.90368917,-135.40426509,-60.67923280
-164.61368816,-93.49898084,-72.88655547,37.55857471,38.87433729,-13.46526897
-0.95830390,-1.01400840,-2.45978950

>  <Name>
3c44_lig

>  <RI>
224

>  <Rbt.Current_Directory>
/home/itssahil/PROJECTS/Mol_Feturizer/New_Systems/rnas/3c44

>  <Rbt.Executable>
rbdock ($Id: //depot/dev/client3/rdock/2013.1/src/exe/rbdock.cxx#4 $)

>  <Rbt.Library>
libRbt.so (2013.1, Build901 2013/11/27)

>  <Rbt.Parameter_File>
/export/apps/rDock/src/rDock_2013.1_src/data/scripts/dock_solv.prm

>  <Rbt.Receptor>
prm/pocket_docking_3.prm

>  <SCORE>
3.66209

>  <SCORE.INTER>
-5.57103

>  <SCORE.INTER.CONST>
1

>  <SCORE.INTER.POLAR>
-1.90208

>  <SCORE.INTER.ROT>
9

>  <SCORE.INTER.SOLV>
21.5094

>  <SCORE.INTER.VDW>
-14.1436

>  <SCORE.INTER.norm>
-0.132643

>  <SCORE.INTRA>
8.77178

>  <SCORE.INTRA.DIHEDRAL>
5.73918

>  <SCORE.INTRA.DIHEDRAL.0>
14.8538

>  <SCORE.INTRA.POLAR>
0

>  <SCORE.INTRA.POLAR.0>
0

>  <SCORE.INTRA.REPUL>
0.0837442

>  <SCORE.INTRA.REPUL.0>
0

>  <SCORE.INTRA.SOLV>
0.522961

>  <SCORE.INTRA.SOLV.lig_0>
-100.951

>  <SCORE.INTRA.VDW>
5.22198

>  <SCORE.INTRA.VDW.0>
-5.71388

>  <SCORE.INTRA.norm>
0.208852

>  <SCORE.RESTR>
0.461338

>  <SCORE.RESTR.CAVITY>
0.461338

>  <SCORE.RESTR.norm>
0.0109842

>  <SCORE.SYSTEM>
0

>  <SCORE.SYSTEM.CONST>
0

>  <SCORE.SYSTEM.DIHEDRAL>
0

>  <SCORE.SYSTEM.SOLV>
0

>  <SCORE.SYSTEM.norm>
0

>  <SCORE.heavy>
42

>  <SCORE.norm>
0.0871926

>  <RMSD>
8.982

$$$$
3c44_lig
 OpenBabel11021811463D
libRbt.so/2013.1/901 2013/11/27
 42 45  0  0  0  0  0  0  0  0999 V2000
   38.0204   39.9495  -12.0857 C   0  0  2  0  0  0  0  0  0  0  0  0
   37.7521   38.6967  -11.4375 O   0  0  0  0  0  0  0  0  0  0  0  0
   40.3509   36.9118  -14.1300 C   0  0  2  0  0  0  0  0  0  0  0  0
   41.3037   36.1301  -14.9333 N   0  0  0  0  0  0  0  0  0  0  0  0
   36.1132   35.7460  -13.9600 C   0  0  1  0  0  0  0  0  0  0  0  0
   33.6732   33.8451  -16.7924 C   0  0  1  0  0  0  0  0  0  0  0  0
   37.2390   41.0590  -11.3740 C   0  0  2  0  0  0  0  0  0  0  0  0
   37.5411   41.0727   -9.9354 N   0  0  0  0  0  0  0  0  0  0  0  0
   40.9721   37.3035  -12.7862 C   0  0  0  0  0  0  0  0  0  0  0  0
   34.9197   34.9283  -13.4640 C   0  0  2  0  0  0  0  0  0  0  0  0
   35.3261   33.5851  -13.1951 O   0  0  0  0  0  0  0  0  0  0  0  0
   34.2939   32.9124  -17.8377 C   0  0  2  0  0  0  0  0  0  0  0  0
   35.5691   33.4955  -18.2772 N   0  0  0  0  0  0  0  0  0  0  0  0
   35.7300   40.8884  -11.5662 C   0  0  1  0  0  0  0  0  0  0  0  0
   35.0541   42.0266  -11.0232 O   0  0  0  0  0  0  0  0  0  0  0  0
   39.9905   38.2399  -12.0738 C   0  0  2  0  0  0  0  0  0  0  0  0
   40.5260   38.5898  -10.7495 N   0  0  0  0  0  0  0  0  0  0  0  0
   34.0589   34.9389  -14.7257 C   0  0  2  0  0  0  0  0  0  0  0  0
   34.6179   34.0804  -15.7335 O   0  0  0  0  0  0  0  0  0  0  0  0
   33.3744   32.7559  -19.0558 C   0  0  1  0  0  0  0  0  0  0  0  0
   32.2196   31.9848  -18.7138 O   0  0  0  0  0  0  0  0  0  0  0  0
   35.4071   40.7651  -13.0564 C   0  0  2  0  0  0  0  0  0  0  0  0
   34.0128   40.4960  -13.2252 O   0  0  0  0  0  0  0  0  0  0  0  0
   38.5958   37.6264  -11.8975 C   0  0  2  0  0  0  0  0  0  0  0  0
   34.2108   36.3904  -15.1526 C   0  0  2  0  0  0  0  0  0  0  0  0
   35.5082   36.8273  -14.6931 O   0  0  0  0  0  0  0  0  0  0  0  0
   32.9180   34.1189  -19.5787 C   0  0  2  0  0  0  0  0  0  0  0  0
   34.0470   34.8054  -20.1267 O   0  0  0  0  0  0  0  0  0  0  0  0
   36.2286   39.6279  -13.6658 C   0  0  2  0  0  0  0  0  0  0  0  0
   37.6357   39.8713  -13.4709 O   0  0  0  0  0  0  0  0  0  0  0  0
   38.0212   36.9998  -13.1662 C   0  0  2  0  0  0  0  0  0  0  0  0
   36.8673   36.2131  -12.8278 O   0  0  0  0  0  0  0  0  0  0  0  0
   33.0944   37.2265  -14.5234 C   0  0  0  0  0  0  0  0  0  0  0  0
   33.3006   37.2940  -13.1106 O   0  0  0  0  0  0  0  0  0  0  0  0
   32.3153   34.9197  -18.4214 C   0  0  1  0  0  0  0  0  0  0  0  0
   33.3268   35.0932  -17.4133 O   0  0  0  0  0  0  0  0  0  0  0  0
   35.9090   39.5745  -15.1620 C   0  0  0  0  0  0  0  0  0  0  0  0
   36.3353   40.8213  -15.8137 O   0  0  0  0  0  0  0  0  0  0  0  0
   39.0661   36.1226  -13.8661 C   0  0  1  0  0  0  0  0  0  0  0  0
   38.5377   35.6188  -15.0949 O   0  0  0  0  0  0  0  0  0  0  0  0
   31.8131   36.2934  -18.8676 C   0  0  0  0  0  0  0  0  0  0  0  0
   30.6571   36.1201  -19.7581 N   0  0  0  0  0  0  0  0  0  0  0  0
  1  2  1  1  0  0  0
  1  7  1  0  0  0  0
  1 30  1  0  0  0  0
  3  4  1  1  0  0  0
  3  9  1  0  0  0  0
  3 39  1  0  0  0  0
  5 10  1  0  0  0  0
  5 26  1  0  0  0  0
  5 32  1  1  0  0  0
  6 12  1  0  0  0  0
  6 36  1  0  0  0  0
  6 19  1  1  0  0  0
  7  8  1  1  0  0  0
  7 14  1  0  0  0  0
  9 16  1  0  0  0  0
 10 11  1  6  0  0  0
 10 18  1  0  0  0  0
 12 13  1  6  0  0  0
 12 20  1  0  0  0  0
 14 15  1  6  0  0  0
 14 22  1  0  0  0  0
 16 17  1  1  0  0  0
 16 24  1  0  0  0  0
 18 19  1  6  0  0  0
 18 25  1  0  0  0  0
 20 21  1  1  0  0  0
 20 27  1  0  0  0  0
 22 23  1  1  0  0  0
 22 29  1  0  0  0  0
 24  2  1  6  0  0  0
 24 31  1  0  0  0  0
 25 26  1  0  0  0  0
 25 33  1  1  0  0  0
 27 28  1  1  0  0  0
 27 35  1  0  0  0  0
 29 30  1  0  0  0  0
 29 37  1  6  0  0  0
 31 32  1  1  0  0  0
 31 39  1  0  0  0  0
 33 34  1  0  0  0  0
 35 36  1  0  0  0  0
 35 41  1  6  0  0  0
 37 38  1  0  0  0  0
 39 40  1  6  0  0  0
 41 42  1  0  0  0  0
M  END
>  <CHROM.1>
-170.90982758,-179.96717798,-179.22372404,166.83681155,39.85090654,68.47192634
63.29194129,170.55932224,67.47692224,35.83748586,36.95747891,-14.69059403
0.97121781,-0.42481189,0.59240115

>  <Name>
3c44_lig

>  <RI>
0

>  <Rbt.Current_Directory>
/home/itssahil/PROJECTS/Mol_Feturizer/New_Systems/rnas/3c44

>  <Rbt.Executable>
rbdock ($Id: //depot/dev/client3/rdock/2013.1/src/exe/rbdock.cxx#4 $)

>  <Rbt.Library>
libRbt.so (2013.1, Build901 2013/11/27)

>  <Rbt.Parameter_File>
/export/apps/rDock/src/rDock_2013.1_src/data/scripts/dock_solv.prm

>  <Rbt.Receptor>
prm/pocket_docking_6.prm

>  <SCORE>
-11.965

>  <SCORE.INTER>
-10.6055

>  <SCORE.INTER.CONST>
1

>  <SCORE.INTER.POLAR>
-1

>  <SCORE.INTER.ROT>
9

>  <SCORE.INTER.SOLV>
14.7648

>  <SCORE.INTER.VDW>
-18.2586

>  <SCORE.INTER.norm>
-0.252513

>  <SCORE.INTRA>
-1.35951

>  <SCORE.INTRA.DIHEDRAL>
-10.4818

>  <SCORE.INTRA.DIHEDRAL.0>
14.8538

>  <SCORE.INTRA.POLAR>
0

>  <SCORE.INTRA.POLAR.0>
0

>  <SCORE.INTRA.REPUL>
0.0192078

>  <SCORE.INTRA.REPUL.0>
0

>  <SCORE.INTRA.SOLV>
-2.03174

>  <SCORE.INTRA.SOLV.lig_0>
-100.951

>  <SCORE.INTRA.VDW>
4.80123

>  <SCORE.INTRA.VDW.0>
-5.71388

>  <SCORE.INTRA.norm>
-0.0323692

>  <SCORE.RESTR>
0

>  <SCORE.RESTR.CAVITY>
0

>  <SCORE.RESTR.norm>
0

>  <SCORE.SYSTEM>
0

>  <SCORE.SYSTEM.CONST>
0

>  <SCORE.SYSTEM.DIHEDRAL>
0

>  <SCORE.SYSTEM.SOLV>
0

>  <SCORE.SYSTEM.norm>
0

>  <SCORE.heavy>
42

>  <SCORE.norm>
-0.284882

>  <RMSD>
9.002

$$$$
3c44_lig
 OpenBabel11021811463D
libRbt.so/2013.1/901 2013/11/27
 42 45  0  0  0  0  0  0  0  0999 V2000
   37.8445   42.6780  -12.5614 C   0  0  2  0  0  0  0  0  0  0  0  0
   38.9779   42.1487  -11.8564 O   0  0  0  0  0  0  0  0  0  0  0  0
   41.4211   44.1155  -14.5678 C   0  0  2  0  0  0  0  0  0  0  0  0
   42.4326   44.8192  -15.3713 N   0  0  0  0  0  0  0  0  0  0  0  0
   40.3034   39.5775  -13.1689 C   0  0  1  0  0  0  0  0  0  0  0  0
   39.0356   35.6849  -14.1379 C   0  0  1  0  0  0  0  0  0  0  0  0
   36.6696   42.8178  -11.5879 C   0  0  2  0  0  0  0  0  0  0  0  0
   37.0520   43.6201  -10.4170 N   0  0  0  0  0  0  0  0  0  0  0  0
   41.1210   44.8887  -13.2804 C   0  0  0  0  0  0  0  0  0  0  0  0
   41.0182   38.2458  -12.9351 C   0  0  2  0  0  0  0  0  0  0  0  0
   41.6371   37.8048  -14.1452 O   0  0  0  0  0  0  0  0  0  0  0  0
   38.2605   35.4458  -15.4378 C   0  0  2  0  0  0  0  0  0  0  0  0
   36.9378   36.0726  -15.3083 N   0  0  0  0  0  0  0  0  0  0  0  0
   36.1724   41.4494  -11.1152 C   0  0  1  0  0  0  0  0  0  0  0  0
   34.9828   41.6225  -10.3393 O   0  0  0  0  0  0  0  0  0  0  0  0
   39.9564   44.1859  -12.5749 C   0  0  2  0  0  0  0  0  0  0  0  0
   39.6785   44.8652  -11.3004 N   0  0  0  0  0  0  0  0  0  0  0  0
   39.8123   37.3542  -12.6457 C   0  0  2  0  0  0  0  0  0  0  0  0
   39.0689   37.0933  -13.8475 O   0  0  0  0  0  0  0  0  0  0  0  0
   38.0745   33.9462  -15.7038 C   0  0  1  0  0  0  0  0  0  0  0  0
   39.3211   33.3447  -16.0633 O   0  0  0  0  0  0  0  0  0  0  0  0
   35.8699   40.5613  -12.3235 C   0  0  2  0  0  0  0  0  0  0  0  0
   35.5117   39.2503  -11.8784 O   0  0  0  0  0  0  0  0  0  0  0  0
   40.2304   42.7028  -12.2958 C   0  0  2  0  0  0  0  0  0  0  0  0
   39.0048   38.2669  -11.7362 C   0  0  2  0  0  0  0  0  0  0  0  0
   39.3116   39.6230  -12.1264 O   0  0  0  0  0  0  0  0  0  0  0  0
   37.5229   33.2331  -14.4682 C   0  0  2  0  0  0  0  0  0  0  0  0
   36.1828   33.6772  -14.2381 O   0  0  0  0  0  0  0  0  0  0  0  0
   37.1051   40.4807  -13.2217 C   0  0  2  0  0  0  0  0  0  0  0  0
   37.4964   41.8005  -13.6486 O   0  0  0  0  0  0  0  0  0  0  0  0
   40.7663   41.9270  -13.4973 C   0  0  2  0  0  0  0  0  0  0  0  0
   41.2561   40.6493  -13.0587 O   0  0  0  0  0  0  0  0  0  0  0  0
   39.3971   38.0118  -10.2794 C   0  0  0  0  0  0  0  0  0  0  0  0
   38.5460   38.7789   -9.4249 O   0  0  0  0  0  0  0  0  0  0  0  0
   38.4099   33.5638  -13.2651 C   0  0  1  0  0  0  0  0  0  0  0  0
   38.3880   34.9877  -13.0618 O   0  0  0  0  0  0  0  0  0  0  0  0
   36.7404   39.6243  -14.4370 C   0  0  0  0  0  0  0  0  0  0  0  0
   35.5695   40.1919  -15.1210 O   0  0  0  0  0  0  0  0  0  0  0  0
   41.8870   42.7053  -14.1968 C   0  0  1  0  0  0  0  0  0  0  0  0
   42.3120   42.0043  -15.3677 O   0  0  0  0  0  0  0  0  0  0  0  0
   37.9360   32.8689  -11.9880 C   0  0  0  0  0  0  0  0  0  0  0  0
   38.0078   31.4130  -12.1742 N   0  0  0  0  0  0  0  0  0  0  0  0
  1  2  1  1  0  0  0
  1  7  1  0  0  0  0
  1 30  1  0  0  0  0
  3  4  1  1  0  0  0
  3  9  1  0  0  0  0
  3 39  1  0  0  0  0
  5 10  1  0  0  0  0
  5 26  1  0  0  0  0
  5 32  1  1  0  0  0
  6 12  1  0  0  0  0
  6 36  1  0  0  0  0
  6 19  1  1  0  0  0
  7  8  1  1  0  0  0
  7 14  1  0  0  0  0
  9 16  1  0  0  0  0
 10 11  1  6  0  0  0
 10 18  1  0  0  0  0
 12 13  1  1  0  0  0
 12 20  1  0  0  0  0
 14 15  1  6  0  0  0
 14 22  1  0  0  0  0
 16 17  1  1  0  0  0
 16 24  1  0  0  0  0
 18 19  1  6  0  0  0
 18 25  1  0  0  0  0
 20 21  1  1  0  0  0
 20 27  1  0  0  0  0
 22 23  1  1  0  0  0
 22 29  1  0  0  0  0
 24  2  1  6  0  0  0
 24 31  1  0  0  0  0
 25 26  1  0  0  0  0
 25 33  1  1  0  0  0
 27 28  1  1  0  0  0
 27 35  1  0  0  0  0
 29 30  1  0  0  0  0
 29 37  1  6  0  0  0
 31 32  1  1  0  0  0
 31 39  1  0  0  0  0
 33 34  1  0  0  0  0
 35 36  1  0  0  0  0
 35 41  1  1  0  0  0
 37 38  1  0  0  0  0
 39 40  1  6  0  0  0
 41 42  1  0  0  0  0
M  END
>  <CHROM.1>
-143.46442235,169.10281213,-178.88309858,119.07499864,38.20655981,-174.51742359
56.46372512,94.64031092,62.02931295,38.72538754,39.21359573,-13.09770796
1.37491778,0.52014847,0.21149998

>  <Name>
3c44_lig

>  <RI>
224

>  <Rbt.Current_Directory>
/home/itssahil/PROJECTS/Mol_Feturizer/New_Systems/rnas/3c44

>  <Rbt.Executable>
rbdock ($Id: //depot/dev/client3/rdock/2013.1/src/exe/rbdock.cxx#4 $)

>  <Rbt.Library>
libRbt.so (2013.1, Build901 2013/11/27)

>  <Rbt.Parameter_File>
/export/apps/rDock/src/rDock_2013.1_src/data/scripts/dock_solv.prm

>  <Rbt.Receptor>
prm/pocket_docking_3.prm

>  <SCORE>
-1.51596

>  <SCORE.INTER>
-7.76316

>  <SCORE.INTER.CONST>
1

>  <SCORE.INTER.POLAR>
-0.78152

>  <SCORE.INTER.ROT>
9

>  <SCORE.INTER.SOLV>
12.2459

>  <SCORE.INTER.VDW>
-16.2523

>  <SCORE.INTER.norm>
-0.184837

>  <SCORE.INTRA>
6.23654

>  <SCORE.INTRA.DIHEDRAL>
4.25154

>  <SCORE.INTRA.DIHEDRAL.0>
14.8538

>  <SCORE.INTRA.POLAR>
0

>  <SCORE.INTRA.POLAR.0>
0

>  <SCORE.INTRA.REPUL>
0.204314

>  <SCORE.INTRA.REPUL.0>
0

>  <SCORE.INTRA.SOLV>
-0.278578

>  <SCORE.INTRA.SOLV.lig_0>
-100.951

>  <SCORE.INTRA.VDW>
3.22849

>  <SCORE.INTRA.VDW.0>
-5.71388

>  <SCORE.INTRA.norm>
0.148489

>  <SCORE.RESTR>
0.0106523

>  <SCORE.RESTR.CAVITY>
0.0106523

>  <SCORE.RESTR.norm>
0.000253625

>  <SCORE.SYSTEM>
0

>  <SCORE.SYSTEM.CONST>
0

>  <SCORE.SYSTEM.DIHEDRAL>
0

>  <SCORE.SYSTEM.SOLV>
0

>  <SCORE.SYSTEM.norm>
0

>  <SCORE.heavy>
42

>  <SCORE.norm>
-0.0360944

>  <RMSD>
9.018

$$$$
3c44_lig
 OpenBabel11021811463D
libRbt.so/2013.1/901 2013/11/27
 42 45  0  0  0  0  0  0  0  0999 V2000
   39.5088   42.5199  -12.6178 C   0  0  2  0  0  0  0  0  0  0  0  0
   38.1630   42.6350  -13.1052 O   0  0  0  0  0  0  0  0  0  0  0  0
   36.3229   41.6518  -16.6881 C   0  0  2  0  0  0  0  0  0  0  0  0
   35.8014   41.1332  -17.9620 N   0  0  0  0  0  0  0  0  0  0  0  0
   36.8057   39.0783  -13.3740 C   0  0  1  0  0  0  0  0  0  0  0  0
   38.5528   35.3866  -13.6603 C   0  0  1  0  0  0  0  0  0  0  0  0
   39.5198   42.7894  -11.1094 C   0  0  2  0  0  0  0  0  0  0  0  0
   38.5721   41.9078  -10.4127 N   0  0  0  0  0  0  0  0  0  0  0  0
   37.8391   41.8522  -16.7673 C   0  0  0  0  0  0  0  0  0  0  0  0
   36.8144   38.2775  -12.0711 C   0  0  2  0  0  0  0  0  0  0  0  0
   37.9571   38.6300  -11.2890 O   0  0  0  0  0  0  0  0  0  0  0  0
   40.0500   35.1130  -13.8377 C   0  0  2  0  0  0  0  0  0  0  0  0
   40.6260   36.2011  -14.6399 N   0  0  0  0  0  0  0  0  0  0  0  0
   39.1658   44.2465  -10.8016 C   0  0  1  0  0  0  0  0  0  0  0  0
   39.3433   44.4891   -9.4027 O   0  0  0  0  0  0  0  0  0  0  0  0
   38.2876   42.5358  -15.4713 C   0  0  2  0  0  0  0  0  0  0  0  0
   39.7502   42.6901  -15.4838 N   0  0  0  0  0  0  0  0  0  0  0  0
   37.0178   36.8724  -12.6344 C   0  0  2  0  0  0  0  0  0  0  0  0
   38.3643   36.7004  -13.1060 O   0  0  0  0  0  0  0  0  0  0  0  0
   40.2875   33.7824  -14.5639 C   0  0  1  0  0  0  0  0  0  0  0  0
   39.9501   32.6829  -13.7142 O   0  0  0  0  0  0  0  0  0  0  0  0
   40.0742   45.1816  -11.6019 C   0  0  2  0  0  0  0  0  0  0  0  0
   39.6686   46.5374  -11.3965 O   0  0  0  0  0  0  0  0  0  0  0  0
   37.8824   41.7600  -14.2118 C   0  0  2  0  0  0  0  0  0  0  0  0
   36.0648   36.9081  -13.8188 C   0  0  2  0  0  0  0  0  0  0  0  0
   36.0010   38.2809  -14.2623 O   0  0  0  0  0  0  0  0  0  0  0  0
   39.4470   33.6943  -15.8388 C   0  0  2  0  0  0  0  0  0  0  0  0
   39.9339   34.6546  -16.7806 O   0  0  0  0  0  0  0  0  0  0  0  0
   39.9820   44.8361  -13.0890 C   0  0  2  0  0  0  0  0  0  0  0  0
   40.3554   43.4608  -13.3040 O   0  0  0  0  0  0  0  0  0  0  0  0
   36.4197   41.3209  -14.1890 C   0  0  2  0  0  0  0  0  0  0  0  0
   36.2247   40.3709  -13.1287 O   0  0  0  0  0  0  0  0  0  0  0  0
   34.6871   36.4074  -13.3799 C   0  0  0  0  0  0  0  0  0  0  0  0
   33.8082   36.4095  -14.5070 O   0  0  0  0  0  0  0  0  0  0  0  0
   37.9838   33.9807  -15.4911 C   0  0  1  0  0  0  0  0  0  0  0  0
   37.8990   35.3054  -14.9368 O   0  0  0  0  0  0  0  0  0  0  0  0
   40.9408   45.7625  -13.8412 C   0  0  0  0  0  0  0  0  0  0  0  0
   40.8196   45.5452  -15.2900 O   0  0  0  0  0  0  0  0  0  0  0  0
   36.0130   40.6995  -15.5304 C   0  0  1  0  0  0  0  0  0  0  0  0
   34.6203   40.3780  -15.5180 O   0  0  0  0  0  0  0  0  0  0  0  0
   37.0699   33.8908  -16.7139 C   0  0  0  0  0  0  0  0  0  0  0  0
   35.6894   34.1909  -16.3093 N   0  0  0  0  0  0  0  0  0  0  0  0
  1  2  1  6  0  0  0
  1  7  1  0  0  0  0
  1 30  1  0  0  0  0
  3  4  1  6  0  0  0
  3  9  1  0  0  0  0
  3 39  1  0  0  0  0
  5 10  1  0  0  0  0
  5 26  1  0  0  0  0
  5 32  1  1  0  0  0
  6 12  1  0  0  0  0
  6 36  1  0  0  0  0
  6 19  1  6  0  0  0
  7  8  1  1  0  0  0
  7 14  1  0  0  0  0
  9 16  1  0  0  0  0
 10 11  1  1  0  0  0
 10 18  1  0  0  0  0
 12 13  1  6  0  0  0
 12 20  1  0  0  0  0
 14 15  1  1  0  0  0
 14 22  1  0  0  0  0
 16 17  1  6  0  0  0
 16 24  1  0  0  0  0
 18 19  1  6  0  0  0
 18 25  1  0  0  0  0
 20 21  1  1  0  0  0
 20 27  1  0  0  0  0
 22 23  1  6  0  0  0
 22 29  1  0  0  0  0
 24  2  1  1  0  0  0
 24 31  1  0  0  0  0
 25 26  1  0  0  0  0
 25 33  1  1  0  0  0
 27 28  1  6  0  0  0
 27 35  1  0  0  0  0
 29 30  1  0  0  0  0
 29 37  1  6  0  0  0
 31 32  1  1  0  0  0
 31 39  1  0  0  0  0
 33 34  1  0  0  0  0
 35 36  1  0  0  0  0
 35 41  1  6  0  0  0
 37 38  1  0  0  0  0
 39 40  1  1  0  0  0
 41 42  1  0  0  0  0
M  END
>  <CHROM.1>
-148.04142692,167.10903892,-166.36542209,-178.91760844,-87.66307718,-178.42547336
-175.72349553,-71.82701341,-179.37200439,38.09714313,39.55110045,-13.93783910
-1.36484895,0.69706453,-3.05054398

>  <Name>
3c44_lig

>  <RI>
0

>  <Rbt.Current_Directory>
/home/itssahil/PROJECTS/Mol_Feturizer/New_Systems/rnas/3c44

>  <Rbt.Executable>
rbdock ($Id: //depot/dev/client3/rdock/2013.1/src/exe/rbdock.cxx#4 $)

>  <Rbt.Library>
libRbt.so (2013.1, Build901 2013/11/27)

>  <Rbt.Parameter_File>
/export/apps/rDock/src/rDock_2013.1_src/data/scripts/dock_solv.prm

>  <Rbt.Receptor>
prm/pocket_docking_4.prm

>  <SCORE>
-6.51395

>  <SCORE.INTER>
-8.67883

>  <SCORE.INTER.CONST>
1

>  <SCORE.INTER.POLAR>
-0.624214

>  <SCORE.INTER.ROT>
9

>  <SCORE.INTER.SOLV>
10.8723

>  <SCORE.INTER.VDW>
-16.9293

>  <SCORE.INTER.norm>
-0.206639

>  <SCORE.INTRA>
2.13023

>  <SCORE.INTRA.DIHEDRAL>
-4.87689

>  <SCORE.INTRA.DIHEDRAL.0>
14.8538

>  <SCORE.INTRA.POLAR>
0

>  <SCORE.INTRA.POLAR.0>
0

>  <SCORE.INTRA.REPUL>
0.00525156

>  <SCORE.INTRA.REPUL.0>
0

>  <SCORE.INTRA.SOLV>
1.39281

>  <SCORE.INTRA.SOLV.lig_0>
-100.951

>  <SCORE.INTRA.VDW>
3.84602

>  <SCORE.INTRA.VDW.0>
-5.71388

>  <SCORE.INTRA.norm>
0.0507199

>  <SCORE.RESTR>
0.0346494

>  <SCORE.RESTR.CAVITY>
0.0346494

>  <SCORE.RESTR.norm>
0.000824985

>  <SCORE.SYSTEM>
0

>  <SCORE.SYSTEM.CONST>
0

>  <SCORE.SYSTEM.DIHEDRAL>
0

>  <SCORE.SYSTEM.SOLV>
0

>  <SCORE.SYSTEM.norm>
0

>  <SCORE.heavy>
42

>  <SCORE.norm>
-0.155094

>  <RMSD>
9.057

$$$$
3c44_lig
 OpenBabel11021811463D
libRbt.so/2013.1/901 2013/11/27
 42 45  0  0  0  0  0  0  0  0999 V2000
   39.8816   40.5647  -14.5086 C   0  0  2  0  0  0  0  0  0  0  0  0
   40.4381   39.9396  -13.3418 O   0  0  0  0  0  0  0  0  0  0  0  0
   38.8296   38.9236   -9.6580 C   0  0  2  0  0  0  0  0  0  0  0  0
   38.2154   38.7723   -8.3300 N   0  0  0  0  0  0  0  0  0  0  0  0
   36.6036   38.9337  -13.6417 C   0  0  1  0  0  0  0  0  0  0  0  0
   33.3951   36.5745  -15.0514 C   0  0  1  0  0  0  0  0  0  0  0  0
   40.7409   40.2078  -15.7260 C   0  0  2  0  0  0  0  0  0  0  0  0
   40.8818   38.7505  -15.8588 N   0  0  0  0  0  0  0  0  0  0  0  0
   39.9687   39.9461   -9.6125 C   0  0  0  0  0  0  0  0  0  0  0  0
   35.2446   39.5747  -13.9268 C   0  0  2  0  0  0  0  0  0  0  0  0
   34.4393   39.5570  -12.7466 O   0  0  0  0  0  0  0  0  0  0  0  0
   32.8853   35.3772  -14.2425 C   0  0  2  0  0  0  0  0  0  0  0  0
   34.0472   34.6217  -13.7544 N   0  0  0  0  0  0  0  0  0  0  0  0
   42.1327   40.8376  -15.6289 C   0  0  1  0  0  0  0  0  0  0  0  0
   42.8390   40.6107  -16.8524 O   0  0  0  0  0  0  0  0  0  0  0  0
   40.6587   39.9372  -10.9806 C   0  0  2  0  0  0  0  0  0  0  0  0
   41.7221   40.9530  -10.9958 N   0  0  0  0  0  0  0  0  0  0  0  0
   34.6845   38.5586  -14.9202 C   0  0  2  0  0  0  0  0  0  0  0  0
   34.3127   37.3418  -14.2523 O   0  0  0  0  0  0  0  0  0  0  0  0
   32.0203   34.4519  -15.1083 C   0  0  1  0  0  0  0  0  0  0  0  0
   30.7700   35.0763  -15.4112 O   0  0  0  0  0  0  0  0  0  0  0  0
   42.0057   42.3422  -15.3835 C   0  0  2  0  0  0  0  0  0  0  0  0
   43.3039   42.9077  -15.1839 O   0  0  0  0  0  0  0  0  0  0  0  0
   39.6944   40.2126  -12.1412 C   0  0  2  0  0  0  0  0  0  0  0  0
   35.9112   38.3104  -15.7838 C   0  0  2  0  0  0  0  0  0  0  0  0
   37.0647   38.5141  -14.9394 O   0  0  0  0  0  0  0  0  0  0  0  0
   32.7277   34.1065  -16.4198 C   0  0  2  0  0  0  0  0  0  0  0  0
   33.8651   33.2889  -16.1301 O   0  0  0  0  0  0  0  0  0  0  0  0
   41.1411   42.5878  -14.1460 C   0  0  2  0  0  0  0  0  0  0  0  0
   39.8407   41.9918  -14.3217 O   0  0  0  0  0  0  0  0  0  0  0  0
   38.4142   39.3805  -12.1041 C   0  0  2  0  0  0  0  0  0  0  0  0
   37.4721   39.9147  -13.0484 O   0  0  0  0  0  0  0  0  0  0  0  0
   35.9121   39.2878  -16.9612 C   0  0  0  0  0  0  0  0  0  0  0  0
   37.0348   39.0078  -17.8002 O   0  0  0  0  0  0  0  0  0  0  0  0
   33.1626   35.4035  -17.1073 C   0  0  1  0  0  0  0  0  0  0  0  0
   34.0647   36.1021  -16.2313 O   0  0  0  0  0  0  0  0  0  0  0  0
   41.0031   44.1021  -13.9692 C   0  0  0  0  0  0  0  0  0  0  0  0
   40.2233   44.6705  -15.0781 O   0  0  0  0  0  0  0  0  0  0  0  0
   37.8025   39.3783  -10.6981 C   0  0  1  0  0  0  0  0  0  0  0  0
   36.6575   38.5233  -10.6644 O   0  0  0  0  0  0  0  0  0  0  0  0
   33.8621   35.1446  -18.4423 C   0  0  0  0  0  0  0  0  0  0  0  0
   32.9002   34.5598  -19.3870 N   0  0  0  0  0  0  0  0  0  0  0  0
  1  2  1  1  0  0  0
  1  7  1  0  0  0  0
  1 30  1  0  0  0  0
  3  4  1  1  0  0  0
  3  9  1  0  0  0  0
  3 39  1  0  0  0  0
  5 10  1  0  0  0  0
  5 26  1  0  0  0  0
  5 32  1  6  0  0  0
  6 12  1  0  0  0  0
  6 36  1  0  0  0  0
  6 19  1  1  0  0  0
  7  8  1  1  0  0  0
  7 14  1  0  0  0  0
  9 16  1  0  0  0  0
 10 11  1  1  0  0  0
 10 18  1  0  0  0  0
 12 13  1  6  0  0  0
 12 20  1  0  0  0  0
 14 15  1  6  0  0  0
 14 22  1  0  0  0  0
 16 17  1  1  0  0  0
 16 24  1  0  0  0  0
 18 19  1  1  0  0  0
 18 25  1  0  0  0  0
 20 21  1  6  0  0  0
 20 27  1  0  0  0  0
 22 23  1  1  0  0  0
 22 29  1  0  0  0  0
 24  2  1  6  0  0  0
 24 31  1  0  0  0  0
 25 26  1  0  0  0  0
 25 33  1  6  0  0  0
 27 28  1  1  0  0  0
 27 35  1  0  0  0  0
 29 30  1  0  0  0  0
 29 37  1  6  0  0  0
 31 32  1  6  0  0  0
 31 39  1  0  0  0  0
 33 34  1  0  0  0  0
 35 36  1  0  0  0  0
 35 41  1  6  0  0  0
 37 38  1  0  0  0  0
 39 40  1  6  0  0  0
 41 42  1  0  0  0  0
M  END
>  <CHROM.1>
-179.77974883,147.49102277,-172.98943549,160.51457043,-159.70871717,-177.39996506
66.80833311,148.27427057,65.75146616,37.35271599,38.80855123,-14.32430325
-0.25177987,-0.65878963,-1.59901964

>  <Name>
3c44_lig

>  <RI>
0

>  <Rbt.Current_Directory>
/home/itssahil/PROJECTS/Mol_Feturizer/New_Systems/rnas/3c44

>  <Rbt.Executable>
rbdock ($Id: //depot/dev/client3/rdock/2013.1/src/exe/rbdock.cxx#4 $)

>  <Rbt.Library>
libRbt.so (2013.1, Build901 2013/11/27)

>  <Rbt.Parameter_File>
/export/apps/rDock/src/rDock_2013.1_src/data/scripts/dock_solv.prm

>  <Rbt.Receptor>
prm/pocket_docking_7.prm

>  <SCORE>
-12.8593

>  <SCORE.INTER>
-10.3404

>  <SCORE.INTER.CONST>
1

>  <SCORE.INTER.POLAR>
-1.76553

>  <SCORE.INTER.ROT>
9

>  <SCORE.INTER.SOLV>
13.1177

>  <SCORE.INTER.VDW>
-14.9811

>  <SCORE.INTER.norm>
-0.2462

>  <SCORE.INTRA>
-2.51891

>  <SCORE.INTRA.DIHEDRAL>
-2.54709

>  <SCORE.INTRA.DIHEDRAL.0>
14.8538

>  <SCORE.INTRA.POLAR>
0

>  <SCORE.INTRA.POLAR.0>
0

>  <SCORE.INTRA.REPUL>
0

>  <SCORE.INTRA.REPUL.0>
0

>  <SCORE.INTRA.SOLV>
-4.01677

>  <SCORE.INTRA.SOLV.lig_0>
-100.951

>  <SCORE.INTRA.VDW>
0.763019

>  <SCORE.INTRA.VDW.0>
-5.71388

>  <SCORE.INTRA.norm>
-0.059974

>  <SCORE.RESTR>
0

>  <SCORE.RESTR.CAVITY>
0

>  <SCORE.RESTR.norm>
0

>  <SCORE.SYSTEM>
0

>  <SCORE.SYSTEM.CONST>
0

>  <SCORE.SYSTEM.DIHEDRAL>
0

>  <SCORE.SYSTEM.SOLV>
0

>  <SCORE.SYSTEM.norm>
0

>  <SCORE.heavy>
42

>  <SCORE.norm>
-0.306174

>  <RMSD>
9.060

$$$$
3c44_lig
 OpenBabel11021811463D
libRbt.so/2013.1/901 2013/11/27
 42 45  0  0  0  0  0  0  0  0999 V2000
   38.3243   43.4033  -11.5152 C   0  0  2  0  0  0  0  0  0  0  0  0
   39.0347   42.3286  -10.8809 O   0  0  0  0  0  0  0  0  0  0  0  0
   37.9681   38.5626   -9.5139 C   0  0  2  0  0  0  0  0  0  0  0  0
   37.4368   37.3275   -8.9171 N   0  0  0  0  0  0  0  0  0  0  0  0
   36.2994   40.4623  -13.2436 C   0  0  1  0  0  0  0  0  0  0  0  0
   34.9493   39.0497  -16.9396 C   0  0  1  0  0  0  0  0  0  0  0  0
   39.2749   44.1407  -12.4641 C   0  0  2  0  0  0  0  0  0  0  0  0
   39.8904   43.2076  -13.4188 N   0  0  0  0  0  0  0  0  0  0  0  0
   38.3495   39.5681   -8.4236 C   0  0  0  0  0  0  0  0  0  0  0  0
   35.3186   41.3351  -14.0280 C   0  0  2  0  0  0  0  0  0  0  0  0
   33.9781   41.0437  -13.6280 O   0  0  0  0  0  0  0  0  0  0  0  0
   33.8868   37.9630  -17.1341 C   0  0  2  0  0  0  0  0  0  0  0  0
   34.1461   36.8859  -16.1688 N   0  0  0  0  0  0  0  0  0  0  0  0
   40.3795   44.8668  -11.6922 C   0  0  1  0  0  0  0  0  0  0  0  0
   41.1429   45.6655  -12.6014 O   0  0  0  0  0  0  0  0  0  0  0  0
   39.0350   40.7572   -9.1048 C   0  0  2  0  0  0  0  0  0  0  0  0
   39.3619   41.7745   -8.0943 N   0  0  0  0  0  0  0  0  0  0  0  0
   35.5454   40.7784  -15.4321 C   0  0  2  0  0  0  0  0  0  0  0  0
   34.9625   39.4716  -15.5645 O   0  0  0  0  0  0  0  0  0  0  0  0
   33.9428   37.3813  -18.5528 C   0  0  1  0  0  0  0  0  0  0  0  0
   33.4714   38.3393  -19.5041 O   0  0  0  0  0  0  0  0  0  0  0  0
   39.7595   45.7644  -10.6198 C   0  0  2  0  0  0  0  0  0  0  0  0
   40.7951   46.3551   -9.8302 O   0  0  0  0  0  0  0  0  0  0  0  0
   38.1724   41.4030  -10.1964 C   0  0  2  0  0  0  0  0  0  0  0  0
   37.0615   40.6624  -15.4426 C   0  0  2  0  0  0  0  0  0  0  0  0
   37.4720   40.4275  -14.0782 O   0  0  0  0  0  0  0  0  0  0  0  0
   35.3707   36.9796  -18.9261 C   0  0  2  0  0  0  0  0  0  0  0  0
   35.7643   35.8672  -18.1174 O   0  0  0  0  0  0  0  0  0  0  0  0
   38.8403   44.9322   -9.7244 C   0  0  2  0  0  0  0  0  0  0  0  0
   37.8122   44.3034  -10.5150 O   0  0  0  0  0  0  0  0  0  0  0  0
   37.5625   40.4099  -11.1834 C   0  0  2  0  0  0  0  0  0  0  0  0
   36.5591   41.0745  -11.9683 O   0  0  0  0  0  0  0  0  0  0  0  0
   37.6683   41.9587  -15.9838 C   0  0  0  0  0  0  0  0  0  0  0  0
   37.4515   43.0073  -15.0370 O   0  0  0  0  0  0  0  0  0  0  0  0
   36.3018   38.1710  -18.6863 C   0  0  1  0  0  0  0  0  0  0  0  0
   36.2386   38.5242  -17.2932 O   0  0  0  0  0  0  0  0  0  0  0  0
   38.2079   45.8788   -8.7009 C   0  0  0  0  0  0  0  0  0  0  0  0
   37.4239   45.1121   -7.7218 O   0  0  0  0  0  0  0  0  0  0  0  0
   36.9452   39.2146  -10.4476 C   0  0  1  0  0  0  0  0  0  0  0  0
   36.4607   38.2567  -11.3913 O   0  0  0  0  0  0  0  0  0  0  0  0
   37.7516   37.8565  -19.0572 C   0  0  0  0  0  0  0  0  0  0  0  0
   38.5922   39.0236  -18.7558 N   0  0  0  0  0  0  0  0  0  0  0  0
  1  2  1  1  0  0  0
  1  7  1  0  0  0  0
  1 30  1  0  0  0  0
  3  4  1  1  0  0  0
  3  9  1  0  0  0  0
  3 39  1  0  0  0  0
  5 10  1  0  0  0  0
  5 26  1  0  0  0  0
  5 32  1  1  0  0  0
  6 12  1  0  0  0  0
  6 36  1  0  0  0  0
  6 19  1  1  0  0  0
  7  8  1  6  0  0  0
  7 14  1  0  0  0  0
  9 16  1  0  0  0  0
 10 11  1  1  0  0  0
 10 18  1  0  0  0  0
 12 13  1  1  0  0  0
 12 20  1  0  0  0  0
 14 15  1  6  0  0  0
 14 22  1  0  0  0  0
 16 17  1  1  0  0  0
 16 24  1  0  0  0  0
 18 19  1  1  0  0  0
 18 25  1  0  0  0  0
 20 21  1  6  0  0  0
 20 27  1  0  0  0  0
 22 23  1  1  0  0  0
 22 29  1  0  0  0  0
 24  2  1  6  0  0  0
 24 31  1  0  0  0  0
 25 26  1  0  0  0  0
 25 33  1  1  0  0  0
 27 28  1  1  0  0  0
 27 35  1  0  0  0  0
 29 30  1  0  0  0  0
 29 37  1  1  0  0  0
 31 32  1  1  0  0  0
 31 39  1  0  0  0  0
 33 34  1  0  0  0  0
 35 36  1  0  0  0  0
 35 41  1  1  0  0  0
 37 38  1  0  0  0  0
 39 40  1  6  0  0  0
 41 42  1  0  0  0  0
M  END
>  <CHROM.1>
-167.38354344,-174.64866445,-158.39904141,169.13697105,-154.84915209,68.90418560
-173.99994053,156.02958500,-177.94048963,37.25457133,40.96517032,-13.34736878
-0.66171751,-1.10867108,-1.35019024

>  <Name>
3c44_lig

>  <RI>
0

>  <Rbt.Current_Directory>
/home/itssahil/PROJECTS/Mol_Feturizer/New_Systems/rnas/3c44

>  <Rbt.Executable>
rbdock ($Id: //depot/dev/client3/rdock/2013.1/src/exe/rbdock.cxx#4 $)

>  <Rbt.Library>
libRbt.so (2013.1, Build901 2013/11/27)

>  <Rbt.Parameter_File>
/export/apps/rDock/src/rDock_2013.1_src/data/scripts/dock_solv.prm

>  <Rbt.Receptor>
prm/pocket_docking_6.prm

>  <SCORE>
-15.6831

>  <SCORE.INTER>
-13.0293

>  <SCORE.INTER.CONST>
1

>  <SCORE.INTER.POLAR>
-1.97235

>  <SCORE.INTER.ROT>
9

>  <SCORE.INTER.SOLV>
17.0833

>  <SCORE.INTER.VDW>
-17.4062

>  <SCORE.INTER.norm>
-0.310223

>  <SCORE.INTRA>
-2.65377

>  <SCORE.INTRA.DIHEDRAL>
-5.32342

>  <SCORE.INTRA.DIHEDRAL.0>
14.8538

>  <SCORE.INTRA.POLAR>
0

>  <SCORE.INTRA.POLAR.0>
0

>  <SCORE.INTRA.REPUL>
0

>  <SCORE.INTRA.REPUL.0>
0

>  <SCORE.INTRA.SOLV>
-0.798929

>  <SCORE.INTRA.SOLV.lig_0>
-100.951

>  <SCORE.INTRA.VDW>
0.407405

>  <SCORE.INTRA.VDW.0>
-5.71388

>  <SCORE.INTRA.norm>
-0.063185

>  <SCORE.RESTR>
0

>  <SCORE.RESTR.CAVITY>
0

>  <SCORE.RESTR.norm>
0

>  <SCORE.SYSTEM>
0

>  <SCORE.SYSTEM.CONST>
0

>  <SCORE.SYSTEM.DIHEDRAL>
0

>  <SCORE.SYSTEM.SOLV>
0

>  <SCORE.SYSTEM.norm>
0

>  <SCORE.heavy>
42

>  <SCORE.norm>
-0.373408

>  <RMSD>
9.065

$$$$
3c44_lig
 OpenBabel11021811463D
libRbt.so/2013.1/901 2013/11/27
 42 45  0  0  0  0  0  0  0  0999 V2000
   38.4171   43.2034  -11.9251 C   0  0  2  0  0  0  0  0  0  0  0  0
   39.1385   42.1470  -11.2728 O   0  0  0  0  0  0  0  0  0  0  0  0
   38.0465   38.4468   -9.7544 C   0  0  2  0  0  0  0  0  0  0  0  0
   37.5163   37.2422   -9.0974 N   0  0  0  0  0  0  0  0  0  0  0  0
   36.2214   40.3205  -13.4288 C   0  0  1  0  0  0  0  0  0  0  0  0
   34.6946   38.8139  -16.9894 C   0  0  1  0  0  0  0  0  0  0  0  0
   39.4060   44.0817  -12.6988 C   0  0  2  0  0  0  0  0  0  0  0  0
   40.2134   43.2725  -13.6232 N   0  0  0  0  0  0  0  0  0  0  0  0
   38.5222   39.4642   -8.7133 C   0  0  0  0  0  0  0  0  0  0  0  0
   35.1435   41.1527  -14.1250 C   0  0  2  0  0  0  0  0  0  0  0  0
   33.8548   40.8106  -13.6111 O   0  0  0  0  0  0  0  0  0  0  0  0
   33.6993   37.6560  -17.1175 C   0  0  2  0  0  0  0  0  0  0  0  0
   34.0626   36.6246  -16.1360 N   0  0  0  0  0  0  0  0  0  0  0  0
   40.3398   44.8374  -11.7501 C   0  0  1  0  0  0  0  0  0  0  0  0
   41.1333   45.7585  -12.5045 O   0  0  0  0  0  0  0  0  0  0  0  0
   39.1999   40.6163   -9.4627 C   0  0  2  0  0  0  0  0  0  0  0  0
   39.6169   41.6453   -8.4982 N   0  0  0  0  0  0  0  0  0  0  0  0
   35.2698   40.6017  -15.5439 C   0  0  2  0  0  0  0  0  0  0  0  0
   34.7288   39.2730  -15.6266 O   0  0  0  0  0  0  0  0  0  0  0  0
   33.7431   37.0409  -18.5224 C   0  0  1  0  0  0  0  0  0  0  0  0
   33.1767   37.9403  -19.4790 O   0  0  0  0  0  0  0  0  0  0  0  0
   39.5168   45.6025  -10.7120 C   0  0  2  0  0  0  0  0  0  0  0  0
   40.3923   46.2168   -9.7628 O   0  0  0  0  0  0  0  0  0  0  0  0
   38.2924   41.2638  -10.5160 C   0  0  2  0  0  0  0  0  0  0  0  0
   36.7827   40.5444  -15.6852 C   0  0  2  0  0  0  0  0  0  0  0  0
   37.3181   40.3290  -14.3615 O   0  0  0  0  0  0  0  0  0  0  0  0
   35.1802   36.7223  -18.9383 C   0  0  2  0  0  0  0  0  0  0  0  0
   35.6741   35.6600  -18.1174 O   0  0  0  0  0  0  0  0  0  0  0  0
   38.5739   44.6365   -9.9931 C   0  0  2  0  0  0  0  0  0  0  0  0
   37.7094   43.9850  -10.9447 O   0  0  0  0  0  0  0  0  0  0  0  0
   37.5952   40.2680  -11.4408 C   0  0  2  0  0  0  0  0  0  0  0  0
   36.5661   40.9455  -12.1802 O   0  0  0  0  0  0  0  0  0  0  0  0
   37.2899   41.8619  -16.2757 C   0  0  0  0  0  0  0  0  0  0  0  0
   38.7003   41.7672  -16.4868 O   0  0  0  0  0  0  0  0  0  0  0  0
   36.0392   37.9773  -18.7627 C   0  0  1  0  0  0  0  0  0  0  0  0
   36.0023   38.3634  -17.3774 O   0  0  0  0  0  0  0  0  0  0  0  0
   37.7403   45.4527   -9.0020 C   0  0  0  0  0  0  0  0  0  0  0  0
   38.5684   45.8515   -7.8547 O   0  0  0  0  0  0  0  0  0  0  0  0
   36.9887   39.1090  -10.6409 C   0  0  1  0  0  0  0  0  0  0  0  0
   36.4202   38.1456  -11.5307 O   0  0  0  0  0  0  0  0  0  0  0  0
   37.4925   37.7471  -19.1791 C   0  0  0  0  0  0  0  0  0  0  0  0
   38.2750   38.9579  -18.8942 N   0  0  0  0  0  0  0  0  0  0  0  0
  1  2  1  1  0  0  0
  1  7  1  0  0  0  0
  1 30  1  0  0  0  0
  3  4  1  1  0  0  0
  3  9  1  0  0  0  0
  3 39  1  0  0  0  0
  5 10  1  0  0  0  0
  5 26  1  0  0  0  0
  5 32  1  1  0  0  0
  6 12  1  0  0  0  0
  6 36  1  0  0  0  0
  6 19  1  1  0  0  0
  7  8  1  6  0  0  0
  7 14  1  0  0  0  0
  9 16  1  0  0  0  0
 10 11  1  1  0  0  0
 10 18  1  0  0  0  0
 12 13  1  1  0  0  0
 12 20  1  0  0  0  0
 14 15  1  6  0  0  0
 14 22  1  0  0  0  0
 16 17  1  1  0  0  0
 16 24  1  0  0  0  0
 18 19  1  1  0  0  0
 18 25  1  0  0  0  0
 20 21  1  6  0  0  0
 20 27  1  0  0  0  0
 22 23  1  1  0  0  0
 22 29  1  0  0  0  0
 24  2  1  6  0  0  0
 24 31  1  0  0  0  0
 25 26  1  0  0  0  0
 25 33  1  1  0  0  0
 27 28  1  1  0  0  0
 27 35  1  0  0  0  0
 29 30  1  0  0  0  0
 29 37  1  1  0  0  0
 31 32  1  1  0  0  0
 31 39  1  0  0  0  0
 33 34  1  0  0  0  0
 35 36  1  0  0  0  0
 35 41  1  1  0  0  0
 37 38  1  0  0  0  0
 39 40  1  6  0  0  0
 41 42  1  0  0  0  0
M  END
>  <CHROM.1>
179.98924875,-178.78694729,-160.27549684,172.89474040,-156.76318004,-176.24105579
-73.38944183,155.44986119,-175.97099799,37.22160652,40.79470862,-13.54054125
-0.62100323,-1.08976371,-1.33945395

>  <Name>
3c44_lig

>  <RI>
0

>  <Rbt.Current_Directory>
/home/itssahil/PROJECTS/Mol_Feturizer/New_Systems/rnas/3c44

>  <Rbt.Executable>
rbdock ($Id: //depot/dev/client3/rdock/2013.1/src/exe/rbdock.cxx#4 $)

>  <Rbt.Library>
libRbt.so (2013.1, Build901 2013/11/27)

>  <Rbt.Parameter_File>
/export/apps/rDock/src/rDock_2013.1_src/data/scripts/dock_solv.prm

>  <Rbt.Receptor>
prm/pocket_docking_7.prm

>  <SCORE>
-15.4662

>  <SCORE.INTER>
-12.0475

>  <SCORE.INTER.CONST>
1

>  <SCORE.INTER.POLAR>
-1.97545

>  <SCORE.INTER.ROT>
9

>  <SCORE.INTER.SOLV>
17.1671

>  <SCORE.INTER.VDW>
-16.7692

>  <SCORE.INTER.norm>
-0.286846

>  <SCORE.INTRA>
-3.41864

>  <SCORE.INTRA.DIHEDRAL>
-6.73794

>  <SCORE.INTRA.DIHEDRAL.0>
14.8538

>  <SCORE.INTRA.POLAR>
0

>  <SCORE.INTRA.POLAR.0>
0

>  <SCORE.INTRA.REPUL>
0

>  <SCORE.INTRA.REPUL.0>
0

>  <SCORE.INTRA.SOLV>
-2.28174

>  <SCORE.INTRA.SOLV.lig_0>
-100.951

>  <SCORE.INTRA.VDW>
1.0912

>  <SCORE.INTRA.VDW.0>
-5.71388

>  <SCORE.INTRA.norm>
-0.0813962

>  <SCORE.RESTR>
0

>  <SCORE.RESTR.CAVITY>
0

>  <SCORE.RESTR.norm>
0

>  <SCORE.SYSTEM>
0

>  <SCORE.SYSTEM.CONST>
0

>  <SCORE.SYSTEM.DIHEDRAL>
0

>  <SCORE.SYSTEM.SOLV>
0

>  <SCORE.SYSTEM.norm>
0

>  <SCORE.heavy>
42

>  <SCORE.norm>
-0.368242

>  <RMSD>
9.066

$$$$
3c44_lig
 OpenBabel11021811463D
libRbt.so/2013.1/901 2013/11/27
 42 45  0  0  0  0  0  0  0  0999 V2000
   38.6356   41.5748  -14.9425 C   0  0  2  0  0  0  0  0  0  0  0  0
   39.3712   41.1134  -13.7989 O   0  0  0  0  0  0  0  0  0  0  0  0
   38.1099   39.6517  -10.1299 C   0  0  2  0  0  0  0  0  0  0  0  0
   37.5190   39.0195   -8.9403 N   0  0  0  0  0  0  0  0  0  0  0  0
   39.3336   37.1056  -13.1478 C   0  0  1  0  0  0  0  0  0  0  0  0
   35.9528   35.3987  -14.3201 C   0  0  1  0  0  0  0  0  0  0  0  0
   39.6009   41.7582  -16.1183 C   0  0  2  0  0  0  0  0  0  0  0  0
   40.3567   40.5234  -16.3732 N   0  0  0  0  0  0  0  0  0  0  0  0
   37.0338   40.3672  -10.9515 C   0  0  0  0  0  0  0  0  0  0  0  0
   38.6473   37.0444  -14.5132 C   0  0  2  0  0  0  0  0  0  0  0  0
   37.4324   37.7959  -14.4831 O   0  0  0  0  0  0  0  0  0  0  0  0
   34.8319   35.3874  -13.2754 C   0  0  2  0  0  0  0  0  0  0  0  0
   34.9641   34.1655  -12.4700 N   0  0  0  0  0  0  0  0  0  0  0  0
   40.5847   42.9016  -15.8578 C   0  0  1  0  0  0  0  0  0  0  0  0
   41.3561   43.1379  -17.0394 O   0  0  0  0  0  0  0  0  0  0  0  0
   37.7375   41.1282  -12.0801 C   0  0  2  0  0  0  0  0  0  0  0  0
   36.7294   41.7800  -12.9296 N   0  0  0  0  0  0  0  0  0  0  0  0
   38.3050   35.5567  -14.5623 C   0  0  2  0  0  0  0  0  0  0  0  0
   37.2249   35.2506  -13.6652 O   0  0  0  0  0  0  0  0  0  0  0  0
   33.4512   35.3932  -13.9444 C   0  0  1  0  0  0  0  0  0  0  0  0
   33.1938   36.6643  -14.5468 O   0  0  0  0  0  0  0  0  0  0  0  0
   39.8176   44.1718  -15.4856 C   0  0  2  0  0  0  0  0  0  0  0  0
   40.7414   45.2060  -15.1364 O   0  0  0  0  0  0  0  0  0  0  0  0
   38.6151   40.2259  -12.9566 C   0  0  2  0  0  0  0  0  0  0  0  0
   39.5959   34.9575  -14.0271 C   0  0  2  0  0  0  0  0  0  0  0  0
   40.1690   35.9333  -13.1301 O   0  0  0  0  0  0  0  0  0  0  0  0
   33.3577   34.3110  -15.0214 C   0  0  2  0  0  0  0  0  0  0  0  0
   33.3931   33.0275  -14.3910 O   0  0  0  0  0  0  0  0  0  0  0  0
   38.8948   43.8838  -14.3005 C   0  0  2  0  0  0  0  0  0  0  0  0
   37.9813   42.8185  -14.6290 O   0  0  0  0  0  0  0  0  0  0  0  0
   39.5495   39.3068  -12.1726 C   0  0  2  0  0  0  0  0  0  0  0  0
   40.1001   38.3195  -13.0597 O   0  0  0  0  0  0  0  0  0  0  0  0
   40.5416   34.6600  -15.1928 C   0  0  0  0  0  0  0  0  0  0  0  0
   40.7408   35.8558  -15.9499 O   0  0  0  0  0  0  0  0  0  0  0  0
   34.5364   34.4656  -15.9861 C   0  0  1  0  0  0  0  0  0  0  0  0
   35.7572   34.3133  -15.2405 O   0  0  0  0  0  0  0  0  0  0  0  0
   38.1157   45.1660  -13.9964 C   0  0  0  0  0  0  0  0  0  0  0  0
   38.9724   46.1177  -13.2744 O   0  0  0  0  0  0  0  0  0  0  0  0
   38.8043   38.6197  -11.0221 C   0  0  1  0  0  0  0  0  0  0  0  0
   39.7153   37.8353  -10.2489 O   0  0  0  0  0  0  0  0  0  0  0  0
   34.5043   33.4293  -17.1101 C   0  0  0  0  0  0  0  0  0  0  0  0
   33.2066   33.4999  -17.7963 N   0  0  0  0  0  0  0  0  0  0  0  0
  1  2  1  1  0  0  0
  1  7  1  0  0  0  0
  1 30  1  0  0  0  0
  3  4  1  1  0  0  0
  3  9  1  0  0  0  0
  3 39  1  0  0  0  0
  5 10  1  0  0  0  0
  5 26  1  0  0  0  0
  5 32  1  6  0  0  0
  6 12  1  0  0  0  0
  6 36  1  0  0  0  0
  6 19  1  1  0  0  0
  7  8  1  1  0  0  0
  7 14  1  0  0  0  0
  9 16  1  0  0  0  0
 10 11  1  1  0  0  0
 10 18  1  0  0  0  0
 12 13  1  6  0  0  0
 12 20  1  0  0  0  0
 14 15  1  6  0  0  0
 14 22  1  0  0  0  0
 16 17  1  6  0  0  0
 16 24  1  0  0  0  0
 18 19  1  1  0  0  0
 18 25  1  0  0  0  0
 20 21  1  6  0  0  0
 20 27  1  0  0  0  0
 22 23  1  1  0  0  0
 22 29  1  0  0  0  0
 24  2  1  6  0  0  0
 24 31  1  0  0  0  0
 25 26  1  0  0  0  0
 25 33  1  6  0  0  0
 27 28  1  1  0  0  0
 27 35  1  0  0  0  0
 29 30  1  0  0  0  0
 29 37  1  6  0  0  0
 31 32  1  6  0  0  0
 31 39  1  0  0  0  0
 33 34  1  0  0  0  0
 35 36  1  0  0  0  0
 35 41  1  6  0  0  0
 37 38  1  0  0  0  0
 39 40  1  1  0  0  0
 41 42  1  0  0  0  0
M  END
>  <CHROM.1>
-146.65522221,108.37646318,-166.95025599,89.01505612,-81.23233267,55.33563795
-77.28513901,-90.90172065,54.67337030,37.82011631,38.55560143,-14.01731719
0.06596007,-1.12181358,-1.43979390

>  <Name>
3c44_lig

>  <RI>
224

>  <Rbt.Current_Directory>
/home/itssahil/PROJECTS/Mol_Feturizer/New_Systems/rnas/3c44

>  <Rbt.Executable>
rbdock ($Id: //depot/dev/client3/rdock/2013.1/src/exe/rbdock.cxx#4 $)

>  <Rbt.Library>
libRbt.so (2013.1, Build901 2013/11/27)

>  <Rbt.Parameter_File>
/export/apps/rDock/src/rDock_2013.1_src/data/scripts/dock_solv.prm

>  <Rbt.Receptor>
prm/pocket_docking_3.prm

>  <SCORE>
8.72092

>  <SCORE.INTER>
-0.985923

>  <SCORE.INTER.CONST>
1

>  <SCORE.INTER.POLAR>
0

>  <SCORE.INTER.ROT>
9

>  <SCORE.INTER.SOLV>
12.4084

>  <SCORE.INTER.VDW>
-14.3934

>  <SCORE.INTER.norm>
-0.0234744

>  <SCORE.INTRA>
9.1543

>  <SCORE.INTRA.DIHEDRAL>
7.08867

>  <SCORE.INTRA.DIHEDRAL.0>
14.8538

>  <SCORE.INTRA.POLAR>
0

>  <SCORE.INTRA.POLAR.0>
0

>  <SCORE.INTRA.REPUL>
0

>  <SCORE.INTRA.REPUL.0>
0

>  <SCORE.INTRA.SOLV>
-0.364828

>  <SCORE.INTRA.SOLV.lig_0>
-100.951

>  <SCORE.INTRA.VDW>
5.79237

>  <SCORE.INTRA.VDW.0>
-5.71388

>  <SCORE.INTRA.norm>
0.217959

>  <SCORE.RESTR>
0.552541

>  <SCORE.RESTR.CAVITY>
0.552541

>  <SCORE.RESTR.norm>
0.0131557

>  <SCORE.SYSTEM>
0

>  <SCORE.SYSTEM.CONST>
0

>  <SCORE.SYSTEM.DIHEDRAL>
0

>  <SCORE.SYSTEM.SOLV>
0

>  <SCORE.SYSTEM.norm>
0

>  <SCORE.heavy>
42

>  <SCORE.norm>
0.207641

>  <RMSD>
9.076

$$$$
3c44_lig
 OpenBabel11021811463D
libRbt.so/2013.1/901 2013/11/27
 42 45  0  0  0  0  0  0  0  0999 V2000
   37.0400   38.8342  -12.2743 C   0  0  2  0  0  0  0  0  0  0  0  0
   38.2456   39.5004  -12.6797 O   0  0  0  0  0  0  0  0  0  0  0  0
   41.8165   38.4995  -14.5336 C   0  0  2  0  0  0  0  0  0  0  0  0
   43.0724   37.9618  -15.0790 N   0  0  0  0  0  0  0  0  0  0  0  0
   38.3908   36.0746  -14.5021 C   0  0  1  0  0  0  0  0  0  0  0  0
   37.3241   32.2245  -13.1071 C   0  0  1  0  0  0  0  0  0  0  0  0
   35.8809   39.8360  -12.3010 C   0  0  2  0  0  0  0  0  0  0  0  0
   35.7744   40.4791  -13.6186 N   0  0  0  0  0  0  0  0  0  0  0  0
   41.8635   38.5335  -13.0033 C   0  0  0  0  0  0  0  0  0  0  0  0
   37.0953   35.3032  -14.7581 C   0  0  2  0  0  0  0  0  0  0  0  0
   36.2142   35.4445  -13.6421 O   0  0  0  0  0  0  0  0  0  0  0  0
   36.2241   32.5101  -12.0794 C   0  0  2  0  0  0  0  0  0  0  0  0
   36.8291   33.2119  -10.9389 N   0  0  0  0  0  0  0  0  0  0  0  0
   36.0539   40.9162  -11.2303 C   0  0  1  0  0  0  0  0  0  0  0  0
   34.8779   41.7301  -11.1877 O   0  0  0  0  0  0  0  0  0  0  0  0
   40.5973   39.2440  -12.5134 C   0  0  2  0  0  0  0  0  0  0  0  0
   40.5765   39.2420  -11.0428 N   0  0  0  0  0  0  0  0  0  0  0  0
   37.6439   33.8778  -14.7747 C   0  0  2  0  0  0  0  0  0  0  0  0
   37.9958   33.4498  -13.4488 O   0  0  0  0  0  0  0  0  0  0  0  0
   35.5835   31.2093  -11.5780 C   0  0  1  0  0  0  0  0  0  0  0  0
   34.7896   30.6144  -12.6079 O   0  0  0  0  0  0  0  0  0  0  0  0
   36.2731   40.2629   -9.8645 C   0  0  2  0  0  0  0  0  0  0  0  0
   36.5435   41.2714   -8.8874 O   0  0  0  0  0  0  0  0  0  0  0  0
   39.3068   38.5938  -13.0276 C   0  0  2  0  0  0  0  0  0  0  0  0
   38.9075   34.0768  -15.5969 C   0  0  2  0  0  0  0  0  0  0  0  0
   39.3496   35.4314  -15.3621 O   0  0  0  0  0  0  0  0  0  0  0  0
   36.6503   30.2053  -11.1380 C   0  0  2  0  0  0  0  0  0  0  0  0
   37.2996   30.7050   -9.9655 O   0  0  0  0  0  0  0  0  0  0  0  0
   37.4533   39.2934   -9.9442 C   0  0  2  0  0  0  0  0  0  0  0  0
   37.2069   38.2919  -10.9509 O   0  0  0  0  0  0  0  0  0  0  0  0
   39.3006   38.3138  -14.5290 C   0  0  2  0  0  0  0  0  0  0  0  0
   38.1926   37.4564  -14.8484 O   0  0  0  0  0  0  0  0  0  0  0  0
   38.5935   33.8497  -17.0772 C   0  0  0  0  0  0  0  0  0  0  0  0
   38.1056   32.5178  -17.2526 O   0  0  0  0  0  0  0  0  0  0  0  0
   37.6615   30.0239  -12.2731 C   0  0  1  0  0  0  0  0  0  0  0  0
   38.2693   31.2983  -12.5485 O   0  0  0  0  0  0  0  0  0  0  0  0
   37.6032   38.6306   -8.5724 C   0  0  0  0  0  0  0  0  0  0  0  0
   36.6882   37.4853   -8.4628 O   0  0  0  0  0  0  0  0  0  0  0  0
   40.6145   37.6578  -14.9697 C   0  0  1  0  0  0  0  0  0  0  0  0
   40.6235   37.4865  -16.3887 O   0  0  0  0  0  0  0  0  0  0  0  0
   38.7543   29.0146  -11.9190 C   0  0  0  0  0  0  0  0  0  0  0  0
   39.3950   29.4173  -10.6593 N   0  0  0  0  0  0  0  0  0  0  0  0
  1  2  1  1  0  0  0
  1  7  1  0  0  0  0
  1 30  1  0  0  0  0
  3  4  1  1  0  0  0
  3  9  1  0  0  0  0
  3 39  1  0  0  0  0
  5 10  1  0  0  0  0
  5 26  1  0  0  0  0
  5 32  1  6  0  0  0
  6 12  1  0  0  0  0
  6 36  1  0  0  0  0
  6 19  1  1  0  0  0
  7  8  1  6  0  0  0
  7 14  1  0  0  0  0
  9 16  1  0  0  0  0
 10 11  1  1  0  0  0
 10 18  1  0  0  0  0
 12 13  1  1  0  0  0
 12 20  1  0  0  0  0
 14 15  1  1  0  0  0
 14 22  1  0  0  0  0
 16 17  1  1  0  0  0
 16 24  1  0  0  0  0
 18 19  1  1  0  0  0
 18 25  1  0  0  0  0
 20 21  1  6  0  0  0
 20 27  1  0  0  0  0
 22 23  1  1  0  0  0
 22 29  1  0  0  0  0
 24  2  1  6  0  0  0
 24 31  1  0  0  0  0
 25 26  1  0  0  0  0
 25 33  1  6  0  0  0
 27 28  1  1  0  0  0
 27 35  1  0  0  0  0
 29 30  1  0  0  0  0
 29 37  1  1  0  0  0
 31 32  1  1  0  0  0
 31 39  1  0  0  0  0
 33 34  1  0  0  0  0
 35 36  1  0  0  0  0
 35 41  1  1  0  0  0
 37 38  1  0  0  0  0
 39 40  1  6  0  0  0
 41 42  1  0  0  0  0
M  END
>  <CHROM.1>
-164.55061366,174.21579465,-107.68885614,124.72596929,-142.45519303,-59.79807704
83.94728957,-76.67510488,-54.72486430,37.99440241,35.94324839,-12.73608496
1.49947605,0.94922408,0.16357800

>  <Name>
3c44_lig

>  <RI>
0

>  <Rbt.Current_Directory>
/home/itssahil/PROJECTS/Mol_Feturizer/New_Systems/rnas/3c44

>  <Rbt.Executable>
rbdock ($Id: //depot/dev/client3/rdock/2013.1/src/exe/rbdock.cxx#4 $)

>  <Rbt.Library>
libRbt.so (2013.1, Build901 2013/11/27)

>  <Rbt.Parameter_File>
/export/apps/rDock/src/rDock_2013.1_src/data/scripts/dock_solv.prm

>  <Rbt.Receptor>
prm/pocket_docking_4.prm

>  <SCORE>
-6.68835

>  <SCORE.INTER>
-14.0138

>  <SCORE.INTER.CONST>
1

>  <SCORE.INTER.POLAR>
-1.87343

>  <SCORE.INTER.ROT>
9

>  <SCORE.INTER.SOLV>
26.9395

>  <SCORE.INTER.VDW>
-21.6776

>  <SCORE.INTER.norm>
-0.333663

>  <SCORE.INTRA>
7.32155

>  <SCORE.INTRA.DIHEDRAL>
7.97013

>  <SCORE.INTRA.DIHEDRAL.0>
14.8538

>  <SCORE.INTRA.POLAR>
0

>  <SCORE.INTRA.POLAR.0>
0

>  <SCORE.INTRA.REPUL>
0

>  <SCORE.INTRA.REPUL.0>
0

>  <SCORE.INTRA.SOLV>
-0.422626

>  <SCORE.INTRA.SOLV.lig_0>
-100.951

>  <SCORE.INTRA.VDW>
3.5478

>  <SCORE.INTRA.VDW.0>
-5.71388

>  <SCORE.INTRA.norm>
0.174323

>  <SCORE.RESTR>
0.00393622

>  <SCORE.RESTR.CAVITY>
0.00393622

>  <SCORE.RESTR.norm>
9.37195e-05

>  <SCORE.SYSTEM>
0

>  <SCORE.SYSTEM.CONST>
0

>  <SCORE.SYSTEM.DIHEDRAL>
0

>  <SCORE.SYSTEM.SOLV>
0

>  <SCORE.SYSTEM.norm>
0

>  <SCORE.heavy>
42

>  <SCORE.norm>
-0.159246

>  <RMSD>
9.076

$$$$
3c44_lig
 OpenBabel11021811463D
libRbt.so/2013.1/901 2013/11/27
 42 45  0  0  0  0  0  0  0  0999 V2000
   40.0509   41.1892  -16.0248 C   0  0  2  0  0  0  0  0  0  0  0  0
   40.2537   41.8194  -14.7506 O   0  0  0  0  0  0  0  0  0  0  0  0
   37.7669   42.7293  -11.5604 C   0  0  2  0  0  0  0  0  0  0  0  0
   36.7824   42.8695  -10.4764 N   0  0  0  0  0  0  0  0  0  0  0  0
   39.9959   39.1090  -12.8496 C   0  0  1  0  0  0  0  0  0  0  0  0
   39.0830   35.2926  -14.4154 C   0  0  1  0  0  0  0  0  0  0  0  0
   41.3837   40.6163  -16.5180 C   0  0  2  0  0  0  0  0  0  0  0  0
   41.9723   39.7191  -15.5131 N   0  0  0  0  0  0  0  0  0  0  0  0
   37.0631   42.5716  -12.9114 C   0  0  0  0  0  0  0  0  0  0  0  0
   40.5921   37.8528  -12.2126 C   0  0  2  0  0  0  0  0  0  0  0  0
   41.8497   37.5480  -12.8186 O   0  0  0  0  0  0  0  0  0  0  0  0
   39.0239   35.1490  -15.9397 C   0  0  2  0  0  0  0  0  0  0  0  0
   38.3490   36.3331  -16.4890 N   0  0  0  0  0  0  0  0  0  0  0  0
   42.3832   41.7300  -16.8401 C   0  0  1  0  0  0  0  0  0  0  0  0
   43.5478   41.1580  -17.4433 O   0  0  0  0  0  0  0  0  0  0  0  0
   38.1389   42.5885  -14.0025 C   0  0  2  0  0  0  0  0  0  0  0  0
   37.5057   42.3775  -15.3131 N   0  0  0  0  0  0  0  0  0  0  0  0
   39.5629   36.8204  -12.6684 C   0  0  2  0  0  0  0  0  0  0  0  0
   39.7018   36.5449  -14.0719 O   0  0  0  0  0  0  0  0  0  0  0  0
   38.2376   33.8963  -16.3479 C   0  0  1  0  0  0  0  0  0  0  0  0
   38.9805   32.7158  -16.0325 O   0  0  0  0  0  0  0  0  0  0  0  0
   41.7488   42.7339  -17.8045 C   0  0  2  0  0  0  0  0  0  0  0  0
   42.6443   43.8285  -18.0162 O   0  0  0  0  0  0  0  0  0  0  0  0
   39.2195   41.5196  -13.7970 C   0  0  2  0  0  0  0  0  0  0  0  0
   38.2734   37.5890  -12.4262 C   0  0  2  0  0  0  0  0  0  0  0  0
   38.5849   38.9896  -12.5898 O   0  0  0  0  0  0  0  0  0  0  0  0
   36.8891   33.8352  -15.6285 C   0  0  2  0  0  0  0  0  0  0  0  0
   36.0591   34.8952  -16.1117 O   0  0  0  0  0  0  0  0  0  0  0  0
   40.4351   43.2497  -17.2154 C   0  0  2  0  0  0  0  0  0  0  0  0
   39.5369   42.1507  -16.9652 O   0  0  0  0  0  0  0  0  0  0  0  0
   39.7936   41.4719  -12.3825 C   0  0  2  0  0  0  0  0  0  0  0  0
   40.5665   40.2711  -12.2230 O   0  0  0  0  0  0  0  0  0  0  0  0
   37.7657   37.3003  -11.0119 C   0  0  0  0  0  0  0  0  0  0  0  0
   36.5274   37.9852  -10.8109 O   0  0  0  0  0  0  0  0  0  0  0  0
   37.1212   33.9819  -14.1224 C   0  0  1  0  0  0  0  0  0  0  0  0
   37.7502   35.2529  -13.8810 O   0  0  0  0  0  0  0  0  0  0  0  0
   39.8154   44.2107  -18.2333 C   0  0  0  0  0  0  0  0  0  0  0  0
   40.4986   45.5112  -18.1801 O   0  0  0  0  0  0  0  0  0  0  0  0
   38.6748   41.5176  -11.3350 C   0  0  1  0  0  0  0  0  0  0  0  0
   39.2364   41.5621  -10.0213 O   0  0  0  0  0  0  0  0  0  0  0  0
   35.8177   33.9097  -13.3260 C   0  0  0  0  0  0  0  0  0  0  0  0
   36.1310   33.7663  -11.8974 N   0  0  0  0  0  0  0  0  0  0  0  0
  1  2  1  1  0  0  0
  1  7  1  0  0  0  0
  1 30  1  0  0  0  0
  3  4  1  1  0  0  0
  3  9  1  0  0  0  0
  3 39  1  0  0  0  0
  5 10  1  0  0  0  0
  5 26  1  0  0  0  0
  5 32  1  1  0  0  0
  6 12  1  0  0  0  0
  6 36  1  0  0  0  0
  6 19  1  6  0  0  0
  7  8  1  1  0  0  0
  7 14  1  0  0  0  0
  9 16  1  0  0  0  0
 10 11  1  6  0  0  0
 10 18  1  0  0  0  0
 12 13  1  6  0  0  0
 12 20  1  0  0  0  0
 14 15  1  6  0  0  0
 14 22  1  0  0  0  0
 16 17  1  6  0  0  0
 16 24  1  0  0  0  0
 18 19  1  6  0  0  0
 18 25  1  0  0  0  0
 20 21  1  1  0  0  0
 20 27  1  0  0  0  0
 22 23  1  1  0  0  0
 22 29  1  0  0  0  0
 24  2  1  6  0  0  0
 24 31  1  0  0  0  0
 25 26  1  0  0  0  0
 25 33  1  1  0  0  0
 27 28  1  6  0  0  0
 27 35  1  0  0  0  0
 29 30  1  0  0  0  0
 29 37  1  6  0  0  0
 31 32  1  6  0  0  0
 31 39  1  0  0  0  0
 33 34  1  0  0  0  0
 35 36  1  0  0  0  0
 35 41  1  1  0  0  0
 37 38  1  0  0  0  0
 39 40  1  1  0  0  0
 41 42  1  0  0  0  0
M  END
>  <CHROM.1>
-136.69349293,-159.69911428,169.82925142,160.43097580,-88.68343176,-177.78062510
-77.67916496,-39.36428277,167.94679853,39.19157023,39.20244105,-14.36882707
-0.80629735,-1.08015059,-2.70008234

>  <Name>
3c44_lig

>  <RI>
0

>  <Rbt.Current_Directory>
/home/itssahil/PROJECTS/Mol_Feturizer/New_Systems/rnas/3c44

>  <Rbt.Executable>
rbdock ($Id: //depot/dev/client3/rdock/2013.1/src/exe/rbdock.cxx#4 $)

>  <Rbt.Library>
libRbt.so (2013.1, Build901 2013/11/27)

>  <Rbt.Parameter_File>
/export/apps/rDock/src/rDock_2013.1_src/data/scripts/dock_solv.prm

>  <Rbt.Receptor>
prm/pocket_docking_4.prm

>  <SCORE>
-2.60064

>  <SCORE.INTER>
-7.29716

>  <SCORE.INTER.CONST>
1

>  <SCORE.INTER.POLAR>
-1.613

>  <SCORE.INTER.ROT>
9

>  <SCORE.INTER.SOLV>
12.7516

>  <SCORE.INTER.VDW>
-13.3386

>  <SCORE.INTER.norm>
-0.173742

>  <SCORE.INTRA>
4.54898

>  <SCORE.INTRA.DIHEDRAL>
2.20511

>  <SCORE.INTRA.DIHEDRAL.0>
14.8538

>  <SCORE.INTRA.POLAR>
0

>  <SCORE.INTRA.POLAR.0>
0

>  <SCORE.INTRA.REPUL>
0

>  <SCORE.INTRA.REPUL.0>
0

>  <SCORE.INTRA.SOLV>
0.179699

>  <SCORE.INTRA.SOLV.lig_0>
-100.951

>  <SCORE.INTRA.VDW>
3.35658

>  <SCORE.INTRA.VDW.0>
-5.71388

>  <SCORE.INTRA.norm>
0.108309

>  <SCORE.RESTR>
0.147542

>  <SCORE.RESTR.CAVITY>
0.147542

>  <SCORE.RESTR.norm>
0.0035129

>  <SCORE.SYSTEM>
0

>  <SCORE.SYSTEM.CONST>
0

>  <SCORE.SYSTEM.DIHEDRAL>
0

>  <SCORE.SYSTEM.SOLV>
0

>  <SCORE.SYSTEM.norm>
0

>  <SCORE.heavy>
42

>  <SCORE.norm>
-0.0619199

>  <RMSD>
9.078

$$$$
3c44_lig
 OpenBabel11021811463D
libRbt.so/2013.1/901 2013/11/27
 42 45  0  0  0  0  0  0  0  0999 V2000
   39.5692   41.2572  -13.8190 C   0  0  2  0  0  0  0  0  0  0  0  0
   40.1289   40.5879  -12.6787 O   0  0  0  0  0  0  0  0  0  0  0  0
   38.2549   38.2545   -9.8094 C   0  0  2  0  0  0  0  0  0  0  0  0
   37.4986   37.6093   -8.7251 N   0  0  0  0  0  0  0  0  0  0  0  0
   36.3652   39.0639  -13.7184 C   0  0  1  0  0  0  0  0  0  0  0  0
   32.9237   37.0219  -15.1848 C   0  0  1  0  0  0  0  0  0  0  0  0
   40.4956   41.0556  -15.0228 C   0  0  2  0  0  0  0  0  0  0  0  0
   40.7496   39.6264  -15.2548 N   0  0  0  0  0  0  0  0  0  0  0  0
   39.1198   39.3930   -9.2608 C   0  0  0  0  0  0  0  0  0  0  0  0
   35.0070   39.7322  -13.9367 C   0  0  2  0  0  0  0  0  0  0  0  0
   34.1985   39.5882  -12.7674 O   0  0  0  0  0  0  0  0  0  0  0  0
   32.3161   35.8800  -14.3633 C   0  0  2  0  0  0  0  0  0  0  0  0
   33.3702   34.8914  -14.0972 N   0  0  0  0  0  0  0  0  0  0  0  0
   41.8320   41.7748  -14.8234 C   0  0  1  0  0  0  0  0  0  0  0  0
   42.5964   41.6919  -16.0301 O   0  0  0  0  0  0  0  0  0  0  0  0
   39.9905   39.9126  -10.4096 C   0  0  2  0  0  0  0  0  0  0  0  0
   40.7930   41.0503   -9.9356 N   0  0  0  0  0  0  0  0  0  0  0  0
   34.4497   38.8290  -15.0350 C   0  0  2  0  0  0  0  0  0  0  0  0
   34.0759   37.5475  -14.5027 O   0  0  0  0  0  0  0  0  0  0  0  0
   31.1752   35.1948  -15.1268 C   0  0  1  0  0  0  0  0  0  0  0  0
   30.0369   36.0570  -15.2026 O   0  0  0  0  0  0  0  0  0  0  0  0
   41.5842   43.2436  -14.4751 C   0  0  2  0  0  0  0  0  0  0  0  0
   42.8285   43.8845  -14.1821 O   0  0  0  0  0  0  0  0  0  0  0  0
   39.1731   40.3573  -11.6289 C   0  0  2  0  0  0  0  0  0  0  0  0
   35.6787   38.6745  -15.9169 C   0  0  2  0  0  0  0  0  0  0  0  0
   36.8299   38.7860  -15.0523 O   0  0  0  0  0  0  0  0  0  0  0  0
   31.6078   34.8260  -16.5468 C   0  0  2  0  0  0  0  0  0  0  0  0
   32.5977   33.7959  -16.4755 O   0  0  0  0  0  0  0  0  0  0  0  0
   40.6602   43.3327  -13.2596 C   0  0  2  0  0  0  0  0  0  0  0  0
   39.4151   42.6595  -13.5312 O   0  0  0  0  0  0  0  0  0  0  0  0
   38.1177   39.3489  -12.0783 C   0  0  2  0  0  0  0  0  0  0  0  0
   37.2321   39.9752  -13.0207 O   0  0  0  0  0  0  0  0  0  0  0  0
   35.6829   39.7727  -16.9825 C   0  0  0  0  0  0  0  0  0  0  0  0
   37.0015   39.8976  -17.5197 O   0  0  0  0  0  0  0  0  0  0  0  0
   32.1791   36.0701  -17.2322 C   0  0  1  0  0  0  0  0  0  0  0  0
   33.3142   36.5255  -16.4749 O   0  0  0  0  0  0  0  0  0  0  0  0
   40.4031   44.8156  -12.9795 C   0  0  0  0  0  0  0  0  0  0  0  0
   39.4882   44.9622  -11.8384 O   0  0  0  0  0  0  0  0  0  0  0  0
   37.3193   38.8206  -10.8806 C   0  0  1  0  0  0  0  0  0  0  0  0
   36.3998   37.8145  -11.3114 O   0  0  0  0  0  0  0  0  0  0  0  0
   32.6172   35.7892  -18.6701 C   0  0  0  0  0  0  0  0  0  0  0  0
   33.0072   37.0521  -19.3124 N   0  0  0  0  0  0  0  0  0  0  0  0
  1  2  1  1  0  0  0
  1  7  1  0  0  0  0
  1 30  1  0  0  0  0
  3  4  1  1  0  0  0
  3  9  1  0  0  0  0
  3 39  1  0  0  0  0
  5 10  1  0  0  0  0
  5 26  1  0  0  0  0
  5 32  1  6  0  0  0
  6 12  1  0  0  0  0
  6 36  1  0  0  0  0
  6 19  1  1  0  0  0
  7  8  1  1  0  0  0
  7 14  1  0  0  0  0
  9 16  1  0  0  0  0
 10 11  1  1  0  0  0
 10 18  1  0  0  0  0
 12 13  1  6  0  0  0
 12 20  1  0  0  0  0
 14 15  1  6  0  0  0
 14 22  1  0  0  0  0
 16 17  1  1  0  0  0
 16 24  1  0  0  0  0
 18 19  1  1  0  0  0
 18 25  1  0  0  0  0
 20 21  1  6  0  0  0
 20 27  1  0  0  0  0
 22 23  1  1  0  0  0
 22 29  1  0  0  0  0
 24  2  1  6  0  0  0
 24 31  1  0  0  0  0
 25 26  1  0  0  0  0
 25 33  1  6  0  0  0
 27 28  1  1  0  0  0
 27 35  1  0  0  0  0
 29 30  1  0  0  0  0
 29 37  1  6  0  0  0
 31 32  1  6  0  0  0
 31 39  1  0  0  0  0
 33 34  1  0  0  0  0
 35 36  1  0  0  0  0
 35 41  1  6  0  0  0
 37 38  1  0  0  0  0
 39 40  1  6  0  0  0
 41 42  1  0  0  0  0
M  END
>  <CHROM.1>
-161.83684238,143.99654060,-164.14383343,145.82631465,-168.65221280,161.66809765
178.49365740,168.08135783,173.53488891,36.86223855,39.22079107,-14.04504687
-0.18758020,-0.67635699,-1.38389762

>  <Name>
3c44_lig

>  <RI>
0

>  <Rbt.Current_Directory>
/home/itssahil/PROJECTS/Mol_Feturizer/New_Systems/rnas/3c44

>  <Rbt.Executable>
rbdock ($Id: //depot/dev/client3/rdock/2013.1/src/exe/rbdock.cxx#4 $)

>  <Rbt.Library>
libRbt.so (2013.1, Build901 2013/11/27)

>  <Rbt.Parameter_File>
/export/apps/rDock/src/rDock_2013.1_src/data/scripts/dock_solv.prm

>  <Rbt.Receptor>
prm/pocket_docking_4.prm

>  <SCORE>
-8.55137

>  <SCORE.INTER>
-8.97197

>  <SCORE.INTER.CONST>
1

>  <SCORE.INTER.POLAR>
-1.78053

>  <SCORE.INTER.ROT>
9

>  <SCORE.INTER.SOLV>
18.7164

>  <SCORE.INTER.VDW>
-15.885

>  <SCORE.INTER.norm>
-0.213618

>  <SCORE.INTRA>
0.0811859

>  <SCORE.INTRA.DIHEDRAL>
-0.52104

>  <SCORE.INTRA.DIHEDRAL.0>
14.8538

>  <SCORE.INTRA.POLAR>
0

>  <SCORE.INTRA.POLAR.0>
0

>  <SCORE.INTRA.REPUL>
0.195823

>  <SCORE.INTRA.REPUL.0>
0

>  <SCORE.INTRA.SOLV>
-4.81723

>  <SCORE.INTRA.SOLV.lig_0>
-100.951

>  <SCORE.INTRA.VDW>
1.77121

>  <SCORE.INTRA.VDW.0>
-5.71388

>  <SCORE.INTRA.norm>
0.001933

>  <SCORE.RESTR>
0.339413

>  <SCORE.RESTR.CAVITY>
0.339413

>  <SCORE.RESTR.norm>
0.00808127

>  <SCORE.SYSTEM>
0

>  <SCORE.SYSTEM.CONST>
0

>  <SCORE.SYSTEM.DIHEDRAL>
0

>  <SCORE.SYSTEM.SOLV>
0

>  <SCORE.SYSTEM.norm>
0

>  <SCORE.heavy>
42

>  <SCORE.norm>
-0.203604

>  <RMSD>
9.104

$$$$
3c44_lig
 OpenBabel11021811463D
libRbt.so/2013.1/901 2013/11/27
 42 45  0  0  0  0  0  0  0  0999 V2000
   37.1788   42.8166  -12.0375 C   0  0  2  0  0  0  0  0  0  0  0  0
   38.0935   41.9104  -11.4021 O   0  0  0  0  0  0  0  0  0  0  0  0
   40.7677   42.7122   -8.3369 C   0  0  2  0  0  0  0  0  0  0  0  0
   41.5469   43.0741   -7.1429 N   0  0  0  0  0  0  0  0  0  0  0  0
   38.1816   38.9031   -9.6656 C   0  0  1  0  0  0  0  0  0  0  0  0
   37.5754   35.6412  -12.3430 C   0  0  1  0  0  0  0  0  0  0  0  0
   35.7681   42.2205  -11.9888 C   0  0  2  0  0  0  0  0  0  0  0  0
   35.3887   41.8844  -10.6089 N   0  0  0  0  0  0  0  0  0  0  0  0
   40.0098   43.9289   -8.8759 C   0  0  0  0  0  0  0  0  0  0  0  0
   37.6665   39.0475  -11.0983 C   0  0  2  0  0  0  0  0  0  0  0  0
   36.2458   38.8962  -11.1240 O   0  0  0  0  0  0  0  0  0  0  0  0
   36.6668   36.1611  -13.4618 C   0  0  2  0  0  0  0  0  0  0  0  0
   35.3670   36.5140  -12.8742 N   0  0  0  0  0  0  0  0  0  0  0  0
   35.6648   40.9631  -12.8557 C   0  0  1  0  0  0  0  0  0  0  0  0
   34.3001   40.5360  -12.9056 O   0  0  0  0  0  0  0  0  0  0  0  0
   39.3511   43.5202  -10.1977 C   0  0  2  0  0  0  0  0  0  0  0  0
   38.5614   44.6472  -10.7165 N   0  0  0  0  0  0  0  0  0  0  0  0
   38.3047   37.8103  -11.7267 C   0  0  2  0  0  0  0  0  0  0  0  0
   37.6434   36.6133  -11.2850 O   0  0  0  0  0  0  0  0  0  0  0  0
   36.4493   35.0919  -14.5405 C   0  0  1  0  0  0  0  0  0  0  0  0
   37.6491   34.8893  -15.2916 O   0  0  0  0  0  0  0  0  0  0  0  0
   36.1573   41.2671  -14.2718 C   0  0  2  0  0  0  0  0  0  0  0  0
   36.1629   40.0654  -15.0469 O   0  0  0  0  0  0  0  0  0  0  0  0
   38.4364   42.2968  -10.0597 C   0  0  2  0  0  0  0  0  0  0  0  0
   39.6963   37.8767  -11.1177 C   0  0  2  0  0  0  0  0  0  0  0  0
   39.5595   38.5210   -9.8325 O   0  0  0  0  0  0  0  0  0  0  0  0
   36.0289   33.7598  -13.9171 C   0  0  2  0  0  0  0  0  0  0  0  0
   34.7219   33.9050  -13.3542 O   0  0  0  0  0  0  0  0  0  0  0  0
   37.5716   41.8459  -14.2088 C   0  0  2  0  0  0  0  0  0  0  0  0
   37.5849   43.0393  -13.4008 O   0  0  0  0  0  0  0  0  0  0  0  0
   39.0657   41.1245   -9.3098 C   0  0  2  0  0  0  0  0  0  0  0  0
   38.0467   40.1641   -8.9871 O   0  0  0  0  0  0  0  0  0  0  0  0
   40.6184   38.6782  -12.0391 C   0  0  0  0  0  0  0  0  0  0  0  0
   40.7114   38.0130  -13.3008 O   0  0  0  0  0  0  0  0  0  0  0  0
   37.0389   33.3773  -12.8320 C   0  0  1  0  0  0  0  0  0  0  0  0
   37.0428   34.4096  -11.8302 O   0  0  0  0  0  0  0  0  0  0  0  0
   38.0016   42.1780  -15.6399 C   0  0  0  0  0  0  0  0  0  0  0  0
   39.3844   42.6768  -15.6483 O   0  0  0  0  0  0  0  0  0  0  0  0
   39.7595   41.6023   -8.0287 C   0  0  1  0  0  0  0  0  0  0  0  0
   40.4165   40.5052   -7.3901 O   0  0  0  0  0  0  0  0  0  0  0  0
   36.7002   32.0404  -12.1712 C   0  0  0  0  0  0  0  0  0  0  0  0
   37.8168   31.6308  -11.3081 N   0  0  0  0  0  0  0  0  0  0  0  0
  1  2  1  6  0  0  0
  1  7  1  0  0  0  0
  1 30  1  0  0  0  0
  3  4  1  1  0  0  0
  3  9  1  0  0  0  0
  3 39  1  0  0  0  0
  5 10  1  0  0  0  0
  5 26  1  0  0  0  0
  5 32  1  1  0  0  0
  6 12  1  0  0  0  0
  6 36  1  0  0  0  0
  6 19  1  1  0  0  0
  7  8  1  1  0  0  0
  7 14  1  0  0  0  0
  9 16  1  0  0  0  0
 10 11  1  1  0  0  0
 10 18  1  0  0  0  0
 12 13  1  1  0  0  0
 12 20  1  0  0  0  0
 14 15  1  6  0  0  0
 14 22  1  0  0  0  0
 16 17  1  1  0  0  0
 16 24  1  0  0  0  0
 18 19  1  1  0  0  0
 18 25  1  0  0  0  0
 20 21  1  1  0  0  0
 20 27  1  0  0  0  0
 22 23  1  6  0  0  0
 22 29  1  0  0  0  0
 24  2  1  6  0  0  0
 24 31  1  0  0  0  0
 25 26  1  0  0  0  0
 25 33  1  6  0  0  0
 27 28  1  1  0  0  0
 27 35  1  0  0  0  0
 29 30  1  0  0  0  0
 29 37  1  6  0  0  0
 31 32  1  1  0  0  0
 31 39  1  0  0  0  0
 33 34  1  0  0  0  0
 35 36  1  0  0  0  0
 35 41  1  1  0  0  0
 37 38  1  0  0  0  0
 39 40  1  6  0  0  0
 41 42  1  0  0  0  0
M  END
>  <CHROM.1>
-100.96391751,-78.59945976,-66.22017145,143.65808427,-72.13948234,-61.63166215
-177.15519469,113.53492056,170.73742810,37.82667251,39.18752767,-11.78893672
1.08108846,-1.02273762,-0.11274365

>  <Name>
3c44_lig

>  <RI>
0

>  <Rbt.Current_Directory>
/home/itssahil/PROJECTS/Mol_Feturizer/New_Systems/rnas/3c44

>  <Rbt.Executable>
rbdock ($Id: //depot/dev/client3/rdock/2013.1/src/exe/rbdock.cxx#4 $)

>  <Rbt.Library>
libRbt.so (2013.1, Build901 2013/11/27)

>  <Rbt.Parameter_File>
/export/apps/rDock/src/rDock_2013.1_src/data/scripts/dock_solv.prm

>  <Rbt.Receptor>
prm/pocket_docking_7.prm

>  <SCORE>
-20.1906

>  <SCORE.INTER>
-25.1214

>  <SCORE.INTER.CONST>
1

>  <SCORE.INTER.POLAR>
-3.70429

>  <SCORE.INTER.ROT>
9

>  <SCORE.INTER.SOLV>
22.1586

>  <SCORE.INTER.VDW>
-21.3861

>  <SCORE.INTER.norm>
-0.598128

>  <SCORE.INTRA>
4.93077

>  <SCORE.INTRA.DIHEDRAL>
5.27956

>  <SCORE.INTRA.DIHEDRAL.0>
14.8538

>  <SCORE.INTRA.POLAR>
0

>  <SCORE.INTRA.POLAR.0>
0

>  <SCORE.INTRA.REPUL>
0

>  <SCORE.INTRA.REPUL.0>
0

>  <SCORE.INTRA.SOLV>
1.55653

>  <SCORE.INTRA.SOLV.lig_0>
-100.951

>  <SCORE.INTRA.VDW>
1.51272

>  <SCORE.INTRA.VDW.0>
-5.71388

>  <SCORE.INTRA.norm>
0.117399

>  <SCORE.RESTR>
0

>  <SCORE.RESTR.CAVITY>
0

>  <SCORE.RESTR.norm>
0

>  <SCORE.SYSTEM>
0

>  <SCORE.SYSTEM.CONST>
0

>  <SCORE.SYSTEM.DIHEDRAL>
0

>  <SCORE.SYSTEM.SOLV>
0

>  <SCORE.SYSTEM.norm>
0

>  <SCORE.heavy>
42

>  <SCORE.norm>
-0.480728

>  <RMSD>
9.104

$$$$
3c44_lig
 OpenBabel11021811463D
libRbt.so/2013.1/901 2013/11/27
 42 45  0  0  0  0  0  0  0  0999 V2000
   36.9671   42.1534  -13.6743 C   0  0  2  0  0  0  0  0  0  0  0  0
   37.7343   41.2254  -12.8920 O   0  0  0  0  0  0  0  0  0  0  0  0
   37.9124   39.8118   -8.9985 C   0  0  2  0  0  0  0  0  0  0  0  0
   37.7983   39.4264   -7.5834 N   0  0  0  0  0  0  0  0  0  0  0  0
   36.0433   38.1184  -13.0446 C   0  0  1  0  0  0  0  0  0  0  0  0
   37.0651   34.6481  -15.2316 C   0  0  1  0  0  0  0  0  0  0  0  0
   37.2444   41.9047  -15.1606 C   0  0  2  0  0  0  0  0  0  0  0  0
   36.9918   40.5000  -15.5128 N   0  0  0  0  0  0  0  0  0  0  0  0
   37.9519   41.3360   -9.1412 C   0  0  0  0  0  0  0  0  0  0  0  0
   35.9871   36.7417  -12.3809 C   0  0  2  0  0  0  0  0  0  0  0  0
   37.2431   36.4434  -11.7683 O   0  0  0  0  0  0  0  0  0  0  0  0
   38.4464   34.5096  -15.8801 C   0  0  2  0  0  0  0  0  0  0  0  0
   38.7746   35.7794  -16.5427 N   0  0  0  0  0  0  0  0  0  0  0  0
   38.6883   42.2592  -15.5245 C   0  0  1  0  0  0  0  0  0  0  0  0
   38.8541   42.1631  -16.9424 O   0  0  0  0  0  0  0  0  0  0  0  0
   38.2272   41.6598  -10.6134 C   0  0  2  0  0  0  0  0  0  0  0  0
   38.2115   43.1183  -10.8019 N   0  0  0  0  0  0  0  0  0  0  0  0
   35.8236   35.8651  -13.6209 C   0  0  2  0  0  0  0  0  0  0  0  0
   37.0521   35.7948  -14.3632 O   0  0  0  0  0  0  0  0  0  0  0  0
   38.4570   33.3873  -16.9262 C   0  0  1  0  0  0  0  0  0  0  0  0
   38.3710   32.1101  -16.2890 O   0  0  0  0  0  0  0  0  0  0  0  0
   39.0034   43.6851  -15.0685 C   0  0  2  0  0  0  0  0  0  0  0  0
   40.3831   43.9731  -15.3106 O   0  0  0  0  0  0  0  0  0  0  0  0
   37.2078   41.0262  -11.5684 C   0  0  2  0  0  0  0  0  0  0  0  0
   34.8031   36.6777  -14.4021 C   0  0  2  0  0  0  0  0  0  0  0  0
   35.0074   38.0613  -14.0427 O   0  0  0  0  0  0  0  0  0  0  0  0
   37.2851   33.5313  -17.8986 C   0  0  2  0  0  0  0  0  0  0  0  0
   37.4869   34.7020  -18.6954 O   0  0  0  0  0  0  0  0  0  0  0  0
   38.7028   43.8233  -13.5753 C   0  0  2  0  0  0  0  0  0  0  0  0
   37.3224   43.5014  -13.3141 O   0  0  0  0  0  0  0  0  0  0  0  0
   36.9474   39.5430  -11.3138 C   0  0  2  0  0  0  0  0  0  0  0  0
   35.7875   39.1297  -12.0544 O   0  0  0  0  0  0  0  0  0  0  0  0
   33.3921   36.2160  -14.0316 C   0  0  0  0  0  0  0  0  0  0  0  0
   33.2408   34.8409  -14.3908 O   0  0  0  0  0  0  0  0  0  0  0  0
   35.9852   33.6470  -17.0980 C   0  0  1  0  0  0  0  0  0  0  0  0
   36.0716   34.8103  -16.2563 O   0  0  0  0  0  0  0  0  0  0  0  0
   38.9864   45.2739  -13.1769 C   0  0  0  0  0  0  0  0  0  0  0  0
   38.0189   46.1727  -13.8227 O   0  0  0  0  0  0  0  0  0  0  0  0
   36.7386   39.2717   -9.8192 C   0  0  1  0  0  0  0  0  0  0  0  0
   36.5857   37.8685   -9.5936 O   0  0  0  0  0  0  0  0  0  0  0  0
   34.7581   33.7735  -18.0017 C   0  0  0  0  0  0  0  0  0  0  0  0
   34.8084   35.0610  -18.7083 N   0  0  0  0  0  0  0  0  0  0  0  0
  1  2  1  1  0  0  0
  1  7  1  0  0  0  0
  1 30  1  0  0  0  0
  3  4  1  1  0  0  0
  3  9  1  0  0  0  0
  3 39  1  0  0  0  0
  5 10  1  0  0  0  0
  5 26  1  0  0  0  0
  5 32  1  1  0  0  0
  6 12  1  0  0  0  0
  6 36  1  0  0  0  0
  6 19  1  1  0  0  0
  7  8  1  1  0  0  0
  7 14  1  0  0  0  0
  9 16  1  0  0  0  0
 10 11  1  6  0  0  0
 10 18  1  0  0  0  0
 12 13  1  6  0  0  0
 12 20  1  0  0  0  0
 14 15  1  6  0  0  0
 14 22  1  0  0  0  0
 16 17  1  1  0  0  0
 16 24  1  0  0  0  0
 18 19  1  6  0  0  0
 18 25  1  0  0  0  0
 20 21  1  1  0  0  0
 20 27  1  0  0  0  0
 22 23  1  1  0  0  0
 22 29  1  0  0  0  0
 24  2  1  6  0  0  0
 24 31  1  0  0  0  0
 25 26  1  0  0  0  0
 25 33  1  1  0  0  0
 27 28  1  1  0  0  0
 27 35  1  0  0  0  0
 29 30  1  0  0  0  0
 29 37  1  6  0  0  0
 31 32  1  6  0  0  0
 31 39  1  0  0  0  0
 33 34  1  0  0  0  0
 35 36  1  0  0  0  0
 35 41  1  6  0  0  0
 37 38  1  0  0  0  0
 39 40  1  6  0  0  0
 41 42  1  0  0  0  0
M  END
>  <CHROM.1>
-158.40954595,85.29542485,-173.29931504,159.86243312,-111.20081947,-61.65812836
67.09226679,117.81036843,-67.18134228,37.09864561,38.65826404,-13.94985354
-0.93318997,-1.25452970,-2.10002325

>  <Name>
3c44_lig

>  <RI>
224

>  <Rbt.Current_Directory>
/home/itssahil/PROJECTS/Mol_Feturizer/New_Systems/rnas/3c44

>  <Rbt.Executable>
rbdock ($Id: //depot/dev/client3/rdock/2013.1/src/exe/rbdock.cxx#4 $)

>  <Rbt.Library>
libRbt.so (2013.1, Build901 2013/11/27)

>  <Rbt.Parameter_File>
/export/apps/rDock/src/rDock_2013.1_src/data/scripts/dock_solv.prm

>  <Rbt.Receptor>
prm/pocket_docking_8.prm

>  <SCORE>
-9.59051

>  <SCORE.INTER>
-14.1794

>  <SCORE.INTER.CONST>
1

>  <SCORE.INTER.POLAR>
-1.85158

>  <SCORE.INTER.ROT>
9

>  <SCORE.INTER.SOLV>
10.5423

>  <SCORE.INTER.VDW>
-16.3951

>  <SCORE.INTER.norm>
-0.337604

>  <SCORE.INTRA>
4.58886

>  <SCORE.INTRA.DIHEDRAL>
6.48614

>  <SCORE.INTRA.DIHEDRAL.0>
14.8538

>  <SCORE.INTRA.POLAR>
0

>  <SCORE.INTRA.POLAR.0>
0

>  <SCORE.INTRA.REPUL>
0

>  <SCORE.INTRA.REPUL.0>
0

>  <SCORE.INTRA.SOLV>
1.78737

>  <SCORE.INTRA.SOLV.lig_0>
-100.951

>  <SCORE.INTRA.VDW>
0.452108

>  <SCORE.INTRA.VDW.0>
-5.71388

>  <SCORE.INTRA.norm>
0.109259

>  <SCORE.RESTR>
0

>  <SCORE.RESTR.CAVITY>
0

>  <SCORE.RESTR.norm>
0

>  <SCORE.SYSTEM>
0

>  <SCORE.SYSTEM.CONST>
0

>  <SCORE.SYSTEM.DIHEDRAL>
0

>  <SCORE.SYSTEM.SOLV>
0

>  <SCORE.SYSTEM.norm>
0

>  <SCORE.heavy>
42

>  <SCORE.norm>
-0.228345

>  <RMSD>
9.107

$$$$
3c44_lig
 OpenBabel11021811463D
libRbt.so/2013.1/901 2013/11/27
 42 45  0  0  0  0  0  0  0  0999 V2000
   36.1511   35.4187  -15.3482 C   0  0  2  0  0  0  0  0  0  0  0  0
   36.0979   36.7604  -14.8395 O   0  0  0  0  0  0  0  0  0  0  0  0
   36.6325   40.5893  -16.3372 C   0  0  2  0  0  0  0  0  0  0  0  0
   36.9889   41.8656  -16.9759 N   0  0  0  0  0  0  0  0  0  0  0  0
   33.9410   36.8976  -17.6716 C   0  0  1  0  0  0  0  0  0  0  0  0
   29.7994   36.3908  -17.7486 C   0  0  1  0  0  0  0  0  0  0  0  0
   35.1486   34.5515  -14.5794 C   0  0  2  0  0  0  0  0  0  0  0  0
   33.8018   35.1388  -14.6289 N   0  0  0  0  0  0  0  0  0  0  0  0
   37.8301   40.0140  -15.5757 C   0  0  0  0  0  0  0  0  0  0  0  0
   33.1092   37.9770  -18.3660 C   0  0  2  0  0  0  0  0  0  0  0  0
   32.7923   39.0194  -17.4415 O   0  0  0  0  0  0  0  0  0  0  0  0
   28.9551   37.4275  -18.4971 C   0  0  2  0  0  0  0  0  0  0  0  0
   28.9229   38.6602  -17.6980 N   0  0  0  0  0  0  0  0  0  0  0  0
   35.5662   34.3818  -13.1166 C   0  0  1  0  0  0  0  0  0  0  0  0
   34.6930   33.4417  -12.4833 O   0  0  0  0  0  0  0  0  0  0  0  0
   37.3468   38.7761  -14.8127 C   0  0  2  0  0  0  0  0  0  0  0  0
   38.4855   38.1588  -14.1161 N   0  0  0  0  0  0  0  0  0  0  0  0
   31.8419   37.1763  -18.6586 C   0  0  2  0  0  0  0  0  0  0  0  0
   31.0939   36.9443  -17.4537 O   0  0  0  0  0  0  0  0  0  0  0  0
   27.5178   36.9297  -18.6987 C   0  0  1  0  0  0  0  0  0  0  0  0
   27.4866   35.8694  -19.6576 O   0  0  0  0  0  0  0  0  0  0  0  0
   37.0064   33.8710  -13.0439 C   0  0  2  0  0  0  0  0  0  0  0  0
   37.4293   33.8187  -11.6788 O   0  0  0  0  0  0  0  0  0  0  0  0
   36.6947   37.7270  -15.7218 C   0  0  2  0  0  0  0  0  0  0  0  0
   32.4464   35.8674  -19.1418 C   0  0  2  0  0  0  0  0  0  0  0  0
   33.7185   35.7230  -18.4737 O   0  0  0  0  0  0  0  0  0  0  0  0
   26.9228   36.4214  -17.3844 C   0  0  2  0  0  0  0  0  0  0  0  0
   26.7472   37.5298  -16.4974 O   0  0  0  0  0  0  0  0  0  0  0  0
   37.9226   34.8090  -13.8314 C   0  0  2  0  0  0  0  0  0  0  0  0
   37.4849   34.8968  -15.2017 O   0  0  0  0  0  0  0  0  0  0  0  0
   35.6499   38.2916  -16.6821 C   0  0  2  0  0  0  0  0  0  0  0  0
   35.3225   37.2976  -17.6669 O   0  0  0  0  0  0  0  0  0  0  0  0
   32.6257   35.9187  -20.6606 C   0  0  0  0  0  0  0  0  0  0  0  0
   31.3394   35.9134  -21.2836 O   0  0  0  0  0  0  0  0  0  0  0  0
   27.8759   35.3919  -16.7717 C   0  0  1  0  0  0  0  0  0  0  0  0
   29.1395   36.0332  -16.5239 O   0  0  0  0  0  0  0  0  0  0  0  0
   39.3396   34.2330  -13.7704 C   0  0  0  0  0  0  0  0  0  0  0  0
   40.2568   35.0649  -14.5627 O   0  0  0  0  0  0  0  0  0  0  0  0
   36.1669   39.5604  -17.3705 C   0  0  1  0  0  0  0  0  0  0  0  0
   35.1429   40.1210  -18.1953 O   0  0  0  0  0  0  0  0  0  0  0  0
   27.3411   34.8169  -15.4595 C   0  0  0  0  0  0  0  0  0  0  0  0
   26.0242   34.2100  -15.6985 N   0  0  0  0  0  0  0  0  0  0  0  0
  1  2  1  1  0  0  0
  1  7  1  0  0  0  0
  1 30  1  0  0  0  0
  3  4  1  6  0  0  0
  3  9  1  0  0  0  0
  3 39  1  0  0  0  0
  5 10  1  0  0  0  0
  5 26  1  0  0  0  0
  5 32  1  6  0  0  0
  6 12  1  0  0  0  0
  6 36  1  0  0  0  0
  6 19  1  1  0  0  0
  7  8  1  1  0  0  0
  7 14  1  0  0  0  0
  9 16  1  0  0  0  0
 10 11  1  1  0  0  0
 10 18  1  0  0  0  0
 12 13  1  1  0  0  0
 12 20  1  0  0  0  0
 14 15  1  6  0  0  0
 14 22  1  0  0  0  0
 16 17  1  6  0  0  0
 16 24  1  0  0  0  0
 18 19  1  1  0  0  0
 18 25  1  0  0  0  0
 20 21  1  6  0  0  0
 20 27  1  0  0  0  0
 22 23  1  1  0  0  0
 22 29  1  0  0  0  0
 24  2  1  1  0  0  0
 24 31  1  0  0  0  0
 25 26  1  0  0  0  0
 25 33  1  6  0  0  0
 27 28  1  1  0  0  0
 27 35  1  0  0  0  0
 29 30  1  0  0  0  0
 29 37  1  6  0  0  0
 31 32  1  6  0  0  0
 31 39  1  0  0  0  0
 33 34  1  0  0  0  0
 35 36  1  0  0  0  0
 35 41  1  1  0  0  0
 37 38  1  0  0  0  0
 39 40  1  1  0  0  0
 41 42  1  0  0  0  0
M  END
>  <CHROM.1>
-163.02548195,77.33906022,-66.37950058,170.37905976,-145.19709434,-68.59979684
177.52788134,119.22424419,57.47618368,33.49424129,36.64509416,-16.44003001
0.22061580,0.26877536,2.43512252

>  <Name>
3c44_lig

>  <RI>
0

>  <Rbt.Current_Directory>
/home/itssahil/PROJECTS/Mol_Feturizer/New_Systems/rnas/3c44

>  <Rbt.Executable>
rbdock ($Id: //depot/dev/client3/rdock/2013.1/src/exe/rbdock.cxx#4 $)

>  <Rbt.Library>
libRbt.so (2013.1, Build901 2013/11/27)

>  <Rbt.Parameter_File>
/export/apps/rDock/src/rDock_2013.1_src/data/scripts/dock_solv.prm

>  <Rbt.Receptor>
prm/pocket_docking_7.prm

>  <SCORE>
-14.7496

>  <SCORE.INTER>
-16.1017

>  <SCORE.INTER.CONST>
1

>  <SCORE.INTER.POLAR>
-2.71743

>  <SCORE.INTER.ROT>
9

>  <SCORE.INTER.SOLV>
17.9786

>  <SCORE.INTER.VDW>
-17.2693

>  <SCORE.INTER.norm>
-0.383374

>  <SCORE.INTRA>
1.35212

>  <SCORE.INTRA.DIHEDRAL>
0.844636

>  <SCORE.INTRA.DIHEDRAL.0>
14.8538

>  <SCORE.INTRA.POLAR>
0

>  <SCORE.INTRA.POLAR.0>
0

>  <SCORE.INTRA.REPUL>
0.0623426

>  <SCORE.INTRA.REPUL.0>
0

>  <SCORE.INTRA.SOLV>
-0.774117

>  <SCORE.INTRA.SOLV.lig_0>
-100.951

>  <SCORE.INTRA.VDW>
1.00515

>  <SCORE.INTRA.VDW.0>
-5.71388

>  <SCORE.INTRA.norm>
0.0321933

>  <SCORE.RESTR>
0

>  <SCORE.RESTR.CAVITY>
0

>  <SCORE.RESTR.norm>
0

>  <SCORE.SYSTEM>
0

>  <SCORE.SYSTEM.CONST>
0

>  <SCORE.SYSTEM.DIHEDRAL>
0

>  <SCORE.SYSTEM.SOLV>
0

>  <SCORE.SYSTEM.norm>
0

>  <SCORE.heavy>
42

>  <SCORE.norm>
-0.351181

>  <RMSD>
9.133

$$$$
3c44_lig
 OpenBabel11021811463D
libRbt.so/2013.1/901 2013/11/27
 42 45  0  0  0  0  0  0  0  0999 V2000
   39.4137   41.0856  -14.1861 C   0  0  2  0  0  0  0  0  0  0  0  0
   40.0475   40.5055  -13.0356 O   0  0  0  0  0  0  0  0  0  0  0  0
   38.3137   38.1802  -10.0730 C   0  0  2  0  0  0  0  0  0  0  0  0
   37.6099   37.5379   -8.9524 N   0  0  0  0  0  0  0  0  0  0  0  0
   36.2799   38.9620  -13.9345 C   0  0  1  0  0  0  0  0  0  0  0  0
   32.8811   36.9943  -15.5854 C   0  0  1  0  0  0  0  0  0  0  0  0
   40.4552   41.2614  -15.2962 C   0  0  2  0  0  0  0  0  0  0  0  0
   41.1325   39.9891  -15.5855 N   0  0  0  0  0  0  0  0  0  0  0  0
   39.1996   39.3235   -9.5697 C   0  0  0  0  0  0  0  0  0  0  0  0
   35.0140   39.6958  -14.3795 C   0  0  2  0  0  0  0  0  0  0  0  0
   34.0748   39.7455  -13.3038 O   0  0  0  0  0  0  0  0  0  0  0  0
   32.3377   35.7361  -14.9002 C   0  0  2  0  0  0  0  0  0  0  0  0
   33.4553   34.8051  -14.6915 N   0  0  0  0  0  0  0  0  0  0  0  0
   41.5032   42.3100  -14.9153 C   0  0  1  0  0  0  0  0  0  0  0  0
   42.3559   42.5536  -16.0382 O   0  0  0  0  0  0  0  0  0  0  0  0
   40.0152   39.8402  -10.7596 C   0  0  2  0  0  0  0  0  0  0  0  0
   40.8354   40.9822  -10.3280 N   0  0  0  0  0  0  0  0  0  0  0  0
   34.5046   38.7139  -15.4328 C   0  0  2  0  0  0  0  0  0  0  0  0
   33.9695   37.5324  -14.8142 O   0  0  0  0  0  0  0  0  0  0  0  0
   31.2750   35.0484  -15.7673 C   0  0  1  0  0  0  0  0  0  0  0  0
   30.0774   35.8290  -15.8019 O   0  0  0  0  0  0  0  0  0  0  0  0
   40.8107   43.6117  -14.5076 C   0  0  2  0  0  0  0  0  0  0  0  0
   41.7860   44.5512  -14.0480 O   0  0  0  0  0  0  0  0  0  0  0  0
   39.1414   40.2772  -11.9420 C   0  0  2  0  0  0  0  0  0  0  0  0
   35.8043   38.3715  -16.1440 C   0  0  2  0  0  0  0  0  0  0  0  0
   36.8608   38.4996  -15.1679 O   0  0  0  0  0  0  0  0  0  0  0  0
   31.7761   34.8534  -17.1993 C   0  0  2  0  0  0  0  0  0  0  0  0
   32.8387   33.8958  -17.1907 O   0  0  0  0  0  0  0  0  0  0  0  0
   39.8033   43.3281  -13.3923 C   0  0  2  0  0  0  0  0  0  0  0  0
   38.8350   42.3556  -13.8325 O   0  0  0  0  0  0  0  0  0  0  0  0
   38.0695   39.2639  -12.3380 C   0  0  2  0  0  0  0  0  0  0  0  0
   37.1398   39.8835  -13.2417 O   0  0  0  0  0  0  0  0  0  0  0  0
   36.0155   39.3364  -17.3127 C   0  0  0  0  0  0  0  0  0  0  0  0
   36.1577   40.6641  -16.8028 O   0  0  0  0  0  0  0  0  0  0  0  0
   32.2715   36.1970  -17.7407 C   0  0  1  0  0  0  0  0  0  0  0  0
   33.3461   36.6568  -16.9020 O   0  0  0  0  0  0  0  0  0  0  0  0
   39.1036   44.6465  -13.0523 C   0  0  0  0  0  0  0  0  0  0  0  0
   38.2788   45.0870  -14.1866 O   0  0  0  0  0  0  0  0  0  0  0  0
   37.3283   38.7389  -11.1027 C   0  0  1  0  0  0  0  0  0  0  0  0
   36.3930   37.7285  -11.4864 O   0  0  0  0  0  0  0  0  0  0  0  0
   32.7720   36.0914  -19.1818 C   0  0  0  0  0  0  0  0  0  0  0  0
   33.9663   35.2359  -19.2177 N   0  0  0  0  0  0  0  0  0  0  0  0
  1  2  1  1  0  0  0
  1  7  1  0  0  0  0
  1 30  1  0  0  0  0
  3  4  1  1  0  0  0
  3  9  1  0  0  0  0
  3 39  1  0  0  0  0
  5 10  1  0  0  0  0
  5 26  1  0  0  0  0
  5 32  1  6  0  0  0
  6 12  1  0  0  0  0
  6 36  1  0  0  0  0
  6 19  1  1  0  0  0
  7  8  1  1  0  0  0
  7 14  1  0  0  0  0
  9 16  1  0  0  0  0
 10 11  1  1  0  0  0
 10 18  1  0  0  0  0
 12 13  1  6  0  0  0
 12 20  1  0  0  0  0
 14 15  1  6  0  0  0
 14 22  1  0  0  0  0
 16 17  1  1  0  0  0
 16 24  1  0  0  0  0
 18 19  1  1  0  0  0
 18 25  1  0  0  0  0
 20 21  1  6  0  0  0
 20 27  1  0  0  0  0
 22 23  1  1  0  0  0
 22 29  1  0  0  0  0
 24  2  1  6  0  0  0
 24 31  1  0  0  0  0
 25 26  1  0  0  0  0
 25 33  1  6  0  0  0
 27 28  1  1  0  0  0
 27 35  1  0  0  0  0
 29 30  1  0  0  0  0
 29 37  1  6  0  0  0
 31 32  1  6  0  0  0
 31 39  1  0  0  0  0
 33 34  1  0  0  0  0
 35 36  1  0  0  0  0
 35 41  1  6  0  0  0
 37 38  1  0  0  0  0
 39 40  1  6  0  0  0
 41 42  1  0  0  0  0
M  END
>  <CHROM.1>
-178.91940798,156.67371621,179.86692878,147.40344537,-172.63332818,63.32952923
66.78920930,165.74282366,-65.39374182,36.73839634,39.21466215,-14.38664622
-0.10338286,-0.74509964,-1.23402942

>  <Name>
3c44_lig

>  <RI>
0

>  <Rbt.Current_Directory>
/home/itssahil/PROJECTS/Mol_Feturizer/New_Systems/rnas/3c44

>  <Rbt.Executable>
rbdock ($Id: //depot/dev/client3/rdock/2013.1/src/exe/rbdock.cxx#4 $)

>  <Rbt.Library>
libRbt.so (2013.1, Build901 2013/11/27)

>  <Rbt.Parameter_File>
/export/apps/rDock/src/rDock_2013.1_src/data/scripts/dock_solv.prm

>  <Rbt.Receptor>
prm/pocket_docking_5.prm

>  <SCORE>
-11.2834

>  <SCORE.INTER>
-9.66729

>  <SCORE.INTER.CONST>
1

>  <SCORE.INTER.POLAR>
-1.9915

>  <SCORE.INTER.ROT>
9

>  <SCORE.INTER.SOLV>
14.7013

>  <SCORE.INTER.VDW>
-14.307

>  <SCORE.INTER.norm>
-0.230173

>  <SCORE.INTRA>
-1.62335

>  <SCORE.INTRA.DIHEDRAL>
-6.79218

>  <SCORE.INTRA.DIHEDRAL.0>
14.8538

>  <SCORE.INTRA.POLAR>
0

>  <SCORE.INTRA.POLAR.0>
0

>  <SCORE.INTRA.REPUL>
0.107232

>  <SCORE.INTRA.REPUL.0>
0

>  <SCORE.INTRA.SOLV>
-2.63343

>  <SCORE.INTRA.SOLV.lig_0>
-100.951

>  <SCORE.INTRA.VDW>
2.55329

>  <SCORE.INTRA.VDW.0>
-5.71388

>  <SCORE.INTRA.norm>
-0.0386512

>  <SCORE.RESTR>
0.00724827

>  <SCORE.RESTR.CAVITY>
0.00724827

>  <SCORE.RESTR.norm>
0.000172578

>  <SCORE.SYSTEM>
0

>  <SCORE.SYSTEM.CONST>
0

>  <SCORE.SYSTEM.DIHEDRAL>
0

>  <SCORE.SYSTEM.SOLV>
0

>  <SCORE.SYSTEM.norm>
0

>  <SCORE.heavy>
42

>  <SCORE.norm>
-0.268652

>  <RMSD>
9.144

$$$$
3c44_lig
 OpenBabel11021811463D
libRbt.so/2013.1/901 2013/11/27
 42 45  0  0  0  0  0  0  0  0999 V2000
   39.2377   41.2452  -14.1921 C   0  0  2  0  0  0  0  0  0  0  0  0
   39.8891   40.6303  -13.0699 O   0  0  0  0  0  0  0  0  0  0  0  0
   38.2571   38.2303  -10.1092 C   0  0  2  0  0  0  0  0  0  0  0  0
   37.5837   37.5579   -8.9874 N   0  0  0  0  0  0  0  0  0  0  0  0
   36.1944   38.9635  -13.9785 C   0  0  1  0  0  0  0  0  0  0  0  0
   33.3134   36.7232  -16.0384 C   0  0  1  0  0  0  0  0  0  0  0  0
   40.2350   41.3583  -15.3499 C   0  0  2  0  0  0  0  0  0  0  0  0
   40.8225   40.0481  -15.6653 N   0  0  0  0  0  0  0  0  0  0  0  0
   39.1073   39.4001   -9.6053 C   0  0  0  0  0  0  0  0  0  0  0  0
   35.0865   39.7122  -14.7209 C   0  0  2  0  0  0  0  0  0  0  0  0
   33.9899   39.9611  -13.8393 O   0  0  0  0  0  0  0  0  0  0  0  0
   32.4178   35.7117  -15.3155 C   0  0  2  0  0  0  0  0  0  0  0  0
   33.2314   35.0071  -14.3151 N   0  0  0  0  0  0  0  0  0  0  0  0
   41.3592   42.3441  -15.0220 C   0  0  1  0  0  0  0  0  0  0  0  0
   42.1716   42.5358  -16.1841 O   0  0  0  0  0  0  0  0  0  0  0  0
   39.8961   39.9512  -10.7978 C   0  0  2  0  0  0  0  0  0  0  0  0
   40.6801   41.1178  -10.3651 N   0  0  0  0  0  0  0  0  0  0  0  0
   34.6769   38.6359  -15.7243 C   0  0  2  0  0  0  0  0  0  0  0  0
   33.9485   37.5813  -15.0744 O   0  0  0  0  0  0  0  0  0  0  0  0
   31.8390   34.6840  -16.2967 C   0  0  1  0  0  0  0  0  0  0  0  0
   30.8616   35.2964  -17.1421 O   0  0  0  0  0  0  0  0  0  0  0  0
   40.7637   43.6847  -14.5878 C   0  0  2  0  0  0  0  0  0  0  0  0
   41.8126   44.5659  -14.1776 O   0  0  0  0  0  0  0  0  0  0  0  0
   38.9994   40.3650  -11.9713 C   0  0  2  0  0  0  0  0  0  0  0  0
   36.0425   38.1220  -16.1522 C   0  0  2  0  0  0  0  0  0  0  0  0
   36.9300   38.3086  -15.0285 O   0  0  0  0  0  0  0  0  0  0  0  0
   32.9382   34.0811  -17.1730 C   0  0  2  0  0  0  0  0  0  0  0  0
   33.7956   33.2812  -16.3538 O   0  0  0  0  0  0  0  0  0  0  0  0
   39.7943   43.4619  -13.4260 C   0  0  2  0  0  0  0  0  0  0  0  0
   38.7513   42.5474  -13.8171 O   0  0  0  0  0  0  0  0  0  0  0  0
   37.9596   39.3181  -12.3658 C   0  0  2  0  0  0  0  0  0  0  0  0
   37.0028   39.9109  -13.2590 O   0  0  0  0  0  0  0  0  0  0  0  0
   36.5253   38.9111  -17.3711 C   0  0  0  0  0  0  0  0  0  0  0  0
   35.6773   38.6178  -18.4837 O   0  0  0  0  0  0  0  0  0  0  0  0
   33.7305   35.2153  -17.8285 C   0  0  1  0  0  0  0  0  0  0  0  0
   34.3157   36.0204  -16.7899 O   0  0  0  0  0  0  0  0  0  0  0  0
   39.1895   44.8196  -13.0592 C   0  0  0  0  0  0  0  0  0  0  0  0
   38.3711   45.3242  -14.1711 O   0  0  0  0  0  0  0  0  0  0  0  0
   37.2458   38.7610  -11.1284 C   0  0  1  0  0  0  0  0  0  0  0  0
   36.3426   37.7216  -11.5115 O   0  0  0  0  0  0  0  0  0  0  0  0
   34.8402   34.6935  -18.7421 C   0  0  0  0  0  0  0  0  0  0  0  0
   34.2369   34.0603  -19.9230 N   0  0  0  0  0  0  0  0  0  0  0  0
  1  2  1  1  0  0  0
  1  7  1  0  0  0  0
  1 30  1  0  0  0  0
  3  4  1  1  0  0  0
  3  9  1  0  0  0  0
  3 39  1  0  0  0  0
  5 10  1  0  0  0  0
  5 26  1  0  0  0  0
  5 32  1  6  0  0  0
  6 12  1  0  0  0  0
  6 36  1  0  0  0  0
  6 19  1  1  0  0  0
  7  8  1  1  0  0  0
  7 14  1  0  0  0  0
  9 16  1  0  0  0  0
 10 11  1  1  0  0  0
 10 18  1  0  0  0  0
 12 13  1  1  0  0  0
 12 20  1  0  0  0  0
 14 15  1  6  0  0  0
 14 22  1  0  0  0  0
 16 17  1  1  0  0  0
 16 24  1  0  0  0  0
 18 19  1  1  0  0  0
 18 25  1  0  0  0  0
 20 21  1  6  0  0  0
 20 27  1  0  0  0  0
 22 23  1  1  0  0  0
 22 29  1  0  0  0  0
 24  2  1  6  0  0  0
 24 31  1  0  0  0  0
 25 26  1  0  0  0  0
 25 33  1  6  0  0  0
 27 28  1  1  0  0  0
 27 35  1  0  0  0  0
 29 30  1  0  0  0  0
 29 37  1  6  0  0  0
 31 32  1  6  0  0  0
 31 39  1  0  0  0  0
 33 34  1  0  0  0  0
 35 36  1  0  0  0  0
 35 41  1  6  0  0  0
 37 38  1  0  0  0  0
 39 40  1  6  0  0  0
 41 42  1  0  0  0  0
M  END
>  <CHROM.1>
-174.50761998,171.40211292,-173.51601160,167.41584353,-170.24763155,-66.63443601
65.17479919,164.13700351,69.06866363,36.89895219,39.03321995,-14.52787888
-0.22171414,-0.84031512,-1.38599496

>  <Name>
3c44_lig

>  <RI>
0

>  <Rbt.Current_Directory>
/home/itssahil/PROJECTS/Mol_Feturizer/New_Systems/rnas/3c44

>  <Rbt.Executable>
rbdock ($Id: //depot/dev/client3/rdock/2013.1/src/exe/rbdock.cxx#4 $)

>  <Rbt.Library>
libRbt.so (2013.1, Build901 2013/11/27)

>  <Rbt.Parameter_File>
/export/apps/rDock/src/rDock_2013.1_src/data/scripts/dock_solv.prm

>  <Rbt.Receptor>
prm/pocket_docking_6.prm

>  <SCORE>
-13.5655

>  <SCORE.INTER>
-8.208

>  <SCORE.INTER.CONST>
1

>  <SCORE.INTER.POLAR>
-1.99438

>  <SCORE.INTER.ROT>
9

>  <SCORE.INTER.SOLV>
16.7392

>  <SCORE.INTER.VDW>
-14.0038

>  <SCORE.INTER.norm>
-0.195429

>  <SCORE.INTRA>
-5.35752

>  <SCORE.INTRA.DIHEDRAL>
-10.7867

>  <SCORE.INTRA.DIHEDRAL.0>
14.8538

>  <SCORE.INTRA.POLAR>
0

>  <SCORE.INTRA.POLAR.0>
0

>  <SCORE.INTRA.REPUL>
0.0202775

>  <SCORE.INTRA.REPUL.0>
0

>  <SCORE.INTRA.SOLV>
-4.56167

>  <SCORE.INTRA.SOLV.lig_0>
-100.951

>  <SCORE.INTRA.VDW>
2.21528

>  <SCORE.INTRA.VDW.0>
-5.71388

>  <SCORE.INTRA.norm>
-0.12756

>  <SCORE.RESTR>
0

>  <SCORE.RESTR.CAVITY>
0

>  <SCORE.RESTR.norm>
0

>  <SCORE.SYSTEM>
0

>  <SCORE.SYSTEM.CONST>
0

>  <SCORE.SYSTEM.DIHEDRAL>
0

>  <SCORE.SYSTEM.SOLV>
0

>  <SCORE.SYSTEM.norm>
0

>  <SCORE.heavy>
42

>  <SCORE.norm>
-0.322989

>  <RMSD>
9.166

$$$$
3c44_lig
 OpenBabel11021811463D
libRbt.so/2013.1/901 2013/11/27
 42 45  0  0  0  0  0  0  0  0999 V2000
   36.3377   41.5234  -13.8185 C   0  0  2  0  0  0  0  0  0  0  0  0
   37.0169   40.4924  -13.0853 O   0  0  0  0  0  0  0  0  0  0  0  0
   37.2872   39.9956   -8.9781 C   0  0  2  0  0  0  0  0  0  0  0  0
   37.1690   39.8347   -7.5207 N   0  0  0  0  0  0  0  0  0  0  0  0
   37.0252   36.7075  -12.2035 C   0  0  1  0  0  0  0  0  0  0  0  0
   37.3873   32.6521  -12.6004 C   0  0  1  0  0  0  0  0  0  0  0  0
   35.0469   40.9489  -14.4115 C   0  0  2  0  0  0  0  0  0  0  0  0
   34.2162   40.3370  -13.3644 N   0  0  0  0  0  0  0  0  0  0  0  0
   36.6078   41.2897   -9.4350 C   0  0  0  0  0  0  0  0  0  0  0  0
   36.1870   35.6977  -12.9888 C   0  0  2  0  0  0  0  0  0  0  0  0
   35.3964   34.9162  -12.0910 O   0  0  0  0  0  0  0  0  0  0  0  0
   36.2322   32.4682  -11.6107 C   0  0  2  0  0  0  0  0  0  0  0  0
   36.6990   32.8703  -10.2767 N   0  0  0  0  0  0  0  0  0  0  0  0
   35.3463   39.9019  -15.4873 C   0  0  1  0  0  0  0  0  0  0  0  0
   34.1231   39.5126  -16.1193 O   0  0  0  0  0  0  0  0  0  0  0  0
   36.9032   41.4699  -10.9277 C   0  0  2  0  0  0  0  0  0  0  0  0
   36.2145   42.6732  -11.4181 N   0  0  0  0  0  0  0  0  0  0  0  0
   37.3031   34.8207  -13.5527 C   0  0  2  0  0  0  0  0  0  0  0  0
   37.8798   34.0014  -12.5225 O   0  0  0  0  0  0  0  0  0  0  0  0
   35.7775   31.0038  -11.5562 C   0  0  1  0  0  0  0  0  0  0  0  0
   35.1054   30.6444  -12.7662 O   0  0  0  0  0  0  0  0  0  0  0  0
   36.2974   40.4884  -16.5321 C   0  0  2  0  0  0  0  0  0  0  0  0
   36.6611   39.4751  -17.4733 O   0  0  0  0  0  0  0  0  0  0  0  0
   36.4659   40.2689  -11.7756 C   0  0  2  0  0  0  0  0  0  0  0  0
   38.3039   35.8842  -13.9765 C   0  0  2  0  0  0  0  0  0  0  0  0
   38.1197   37.0084  -13.0890 O   0  0  0  0  0  0  0  0  0  0  0  0
   36.9691   30.0653  -11.3585 C   0  0  2  0  0  0  0  0  0  0  0  0
   37.5087   30.2729  -10.0501 O   0  0  0  0  0  0  0  0  0  0  0  0
   37.5522   41.0225  -15.8397 C   0  0  2  0  0  0  0  0  0  0  0  0
   37.1946   42.0206  -14.8633 O   0  0  0  0  0  0  0  0  0  0  0  0
   36.9184   38.9167  -11.2285 C   0  0  2  0  0  0  0  0  0  0  0  0
   36.2224   37.8667  -11.9198 O   0  0  0  0  0  0  0  0  0  0  0  0
   38.0399   36.2823  -15.4302 C   0  0  0  0  0  0  0  0  0  0  0  0
   39.0236   37.2349  -15.8400 O   0  0  0  0  0  0  0  0  0  0  0  0
   38.0237   30.3681  -12.4262 C   0  0  1  0  0  0  0  0  0  0  0  0
   38.4443   31.7354  -12.2750 O   0  0  0  0  0  0  0  0  0  0  0  0
   38.4488   41.6405  -16.9156 C   0  0  0  0  0  0  0  0  0  0  0  0
   39.7237   42.0709  -16.3237 O   0  0  0  0  0  0  0  0  0  0  0  0
   36.6519   38.8180   -9.7217 C   0  0  1  0  0  0  0  0  0  0  0  0
   37.1629   37.5832   -9.2146 O   0  0  0  0  0  0  0  0  0  0  0  0
   39.2440   29.4538  -12.3102 C   0  0  0  0  0  0  0  0  0  0  0  0
   38.8308   28.0633  -12.5456 N   0  0  0  0  0  0  0  0  0  0  0  0
  1  2  1  6  0  0  0
  1  7  1  0  0  0  0
  1 30  1  0  0  0  0
  3  4  1  1  0  0  0
  3  9  1  0  0  0  0
  3 39  1  0  0  0  0
  5 10  1  0  0  0  0
  5 26  1  0  0  0  0
  5 32  1  6  0  0  0
  6 12  1  0  0  0  0
  6 36  1  0  0  0  0
  6 19  1  1  0  0  0
  7  8  1  1  0  0  0
  7 14  1  0  0  0  0
  9 16  1  0  0  0  0
 10 11  1  1  0  0  0
 10 18  1  0  0  0  0
 12 13  1  1  0  0  0
 12 20  1  0  0  0  0
 14 15  1  6  0  0  0
 14 22  1  0  0  0  0
 16 17  1  6  0  0  0
 16 24  1  0  0  0  0
 18 19  1  1  0  0  0
 18 25  1  0  0  0  0
 20 21  1  6  0  0  0
 20 27  1  0  0  0  0
 22 23  1  6  0  0  0
 22 29  1  0  0  0  0
 24  2  1  6  0  0  0
 24 31  1  0  0  0  0
 25 26  1  0  0  0  0
 25 33  1  6  0  0  0
 27 28  1  1  0  0  0
 27 35  1  0  0  0  0
 29 30  1  0  0  0  0
 29 37  1  6  0  0  0
 31 32  1  6  0  0  0
 31 39  1  0  0  0  0
 33 34  1  0  0  0  0
 35 36  1  0  0  0  0
 35 41  1  1  0  0  0
 37 38  1  0  0  0  0
 39 40  1  1  0  0  0
 41 42  1  0  0  0  0
M  END
>  <CHROM.1>
-79.53106272,-177.60359499,-97.09651063,101.95815267,-73.37962157,-177.27270954
-175.26206056,141.39171695,63.22514730,36.99182328,36.90273422,-12.83758896
2.04913845,1.43555887,-0.67646228

>  <Name>
3c44_lig

>  <RI>
0

>  <Rbt.Current_Directory>
/home/itssahil/PROJECTS/Mol_Feturizer/New_Systems/rnas/3c44

>  <Rbt.Executable>
rbdock ($Id: //depot/dev/client3/rdock/2013.1/src/exe/rbdock.cxx#4 $)

>  <Rbt.Library>
libRbt.so (2013.1, Build901 2013/11/27)

>  <Rbt.Parameter_File>
/export/apps/rDock/src/rDock_2013.1_src/data/scripts/dock_solv.prm

>  <Rbt.Receptor>
prm/pocket_docking_5.prm

>  <SCORE>
-21.2348

>  <SCORE.INTER>
-27.1827

>  <SCORE.INTER.CONST>
1

>  <SCORE.INTER.POLAR>
-3.99234

>  <SCORE.INTER.ROT>
9

>  <SCORE.INTER.SOLV>
24.5177

>  <SCORE.INTER.VDW>
-22.5865

>  <SCORE.INTER.norm>
-0.647206

>  <SCORE.INTRA>
5.8338

>  <SCORE.INTRA.DIHEDRAL>
3.63828

>  <SCORE.INTRA.DIHEDRAL.0>
14.8538

>  <SCORE.INTRA.POLAR>
0

>  <SCORE.INTRA.POLAR.0>
0

>  <SCORE.INTRA.REPUL>
0.156273

>  <SCORE.INTRA.REPUL.0>
0

>  <SCORE.INTRA.SOLV>
0.582289

>  <SCORE.INTRA.SOLV.lig_0>
-100.951

>  <SCORE.INTRA.VDW>
2.94215

>  <SCORE.INTRA.VDW.0>
-5.71388

>  <SCORE.INTRA.norm>
0.1389

>  <SCORE.RESTR>
0.114051

>  <SCORE.RESTR.CAVITY>
0.114051

>  <SCORE.RESTR.norm>
0.00271551

>  <SCORE.SYSTEM>
0

>  <SCORE.SYSTEM.CONST>
0

>  <SCORE.SYSTEM.DIHEDRAL>
0

>  <SCORE.SYSTEM.SOLV>
0

>  <SCORE.SYSTEM.norm>
0

>  <SCORE.heavy>
42

>  <SCORE.norm>
-0.50559

>  <RMSD>
9.198

$$$$
3c44_lig
 OpenBabel11021811463D
libRbt.so/2013.1/901 2013/11/27
 42 45  0  0  0  0  0  0  0  0999 V2000
   39.7058   42.9762  -11.4084 C   0  0  2  0  0  0  0  0  0  0  0  0
   39.5154   41.5556  -11.3229 O   0  0  0  0  0  0  0  0  0  0  0  0
   38.1689   38.9730   -8.3722 C   0  0  2  0  0  0  0  0  0  0  0  0
   37.5638   38.2183   -7.2640 N   0  0  0  0  0  0  0  0  0  0  0  0
   36.3676   39.2893  -12.5005 C   0  0  1  0  0  0  0  0  0  0  0  0
   33.6030   37.3064  -14.9652 C   0  0  1  0  0  0  0  0  0  0  0  0
   38.4434   43.6163  -11.9952 C   0  0  2  0  0  0  0  0  0  0  0  0
   37.2539   43.2351  -11.2200 N   0  0  0  0  0  0  0  0  0  0  0  0
   38.7779   40.2830   -7.8639 C   0  0  0  0  0  0  0  0  0  0  0  0
   35.4115   39.8706  -13.5431 C   0  0  2  0  0  0  0  0  0  0  0  0
   34.0926   39.9589  -13.0006 O   0  0  0  0  0  0  0  0  0  0  0  0
   32.7468   36.2017  -14.3374 C   0  0  2  0  0  0  0  0  0  0  0  0
   33.6145   35.0502  -14.0540 N   0  0  0  0  0  0  0  0  0  0  0  0
   38.2397   43.2079  -13.4563 C   0  0  1  0  0  0  0  0  0  0  0  0
   37.1462   43.9499  -14.0049 O   0  0  0  0  0  0  0  0  0  0  0  0
   39.5211   40.9367   -9.0336 C   0  0  2  0  0  0  0  0  0  0  0  0
   40.0692   42.2306   -8.5995 N   0  0  0  0  0  0  0  0  0  0  0  0
   35.4445   38.7468  -14.5769 C   0  0  2  0  0  0  0  0  0  0  0  0
   34.7199   37.5982  -14.1070 O   0  0  0  0  0  0  0  0  0  0  0  0
   31.6296   35.7578  -15.2908 C   0  0  1  0  0  0  0  0  0  0  0  0
   30.6377   36.7811  -15.4084 O   0  0  0  0  0  0  0  0  0  0  0  0
   39.5091   43.4997  -14.2586 C   0  0  2  0  0  0  0  0  0  0  0  0
   39.3541   43.0164  -15.5956 O   0  0  0  0  0  0  0  0  0  0  0  0
   38.6288   41.1637  -10.2603 C   0  0  2  0  0  0  0  0  0  0  0  0
   36.9326   38.4350  -14.5999 C   0  0  2  0  0  0  0  0  0  0  0  0
   37.4451   38.7473  -13.2865 O   0  0  0  0  0  0  0  0  0  0  0  0
   32.1848   35.4492  -16.6823 C   0  0  2  0  0  0  0  0  0  0  0  0
   33.0086   34.2825  -16.6029 O   0  0  0  0  0  0  0  0  0  0  0  0
   40.7029   42.8099  -13.5968 C   0  0  2  0  0  0  0  0  0  0  0  0
   40.8480   43.2637  -12.2365 O   0  0  0  0  0  0  0  0  0  0  0  0
   37.8065   39.9443  -10.6721 C   0  0  2  0  0  0  0  0  0  0  0  0
   36.8097   40.3431  -11.6271 O   0  0  0  0  0  0  0  0  0  0  0  0
   37.6153   39.2857  -15.6731 C   0  0  0  0  0  0  0  0  0  0  0  0
   38.9986   38.9323  -15.7397 O   0  0  0  0  0  0  0  0  0  0  0  0
   33.0020   36.6487  -17.1694 C   0  0  1  0  0  0  0  0  0  0  0  0
   34.0831   36.8675  -16.2459 O   0  0  0  0  0  0  0  0  0  0  0  0
   41.9529   43.1689  -14.4043 C   0  0  0  0  0  0  0  0  0  0  0  0
   43.1601   42.7453  -13.6804 O   0  0  0  0  0  0  0  0  0  0  0  0
   37.1358   39.2986   -9.4538 C   0  0  1  0  0  0  0  0  0  0  0  0
   36.4459   38.1104   -9.8479 O   0  0  0  0  0  0  0  0  0  0  0  0
   33.5769   36.4276  -18.5691 C   0  0  0  0  0  0  0  0  0  0  0  0
   32.4747   36.3498  -19.5380 N   0  0  0  0  0  0  0  0  0  0  0  0
  1  2  1  6  0  0  0
  1  7  1  0  0  0  0
  1 30  1  0  0  0  0
  3  4  1  1  0  0  0
  3  9  1  0  0  0  0
  3 39  1  0  0  0  0
  5 10  1  0  0  0  0
  5 26  1  0  0  0  0
  5 32  1  1  0  0  0
  6 12  1  0  0  0  0
  6 36  1  0  0  0  0
  6 19  1  1  0  0  0
  7  8  1  1  0  0  0
  7 14  1  0  0  0  0
  9 16  1  0  0  0  0
 10 11  1  1  0  0  0
 10 18  1  0  0  0  0
 12 13  1  6  0  0  0
 12 20  1  0  0  0  0
 14 15  1  6  0  0  0
 14 22  1  0  0  0  0
 16 17  1  1  0  0  0
 16 24  1  0  0  0  0
 18 19  1  1  0  0  0
 18 25  1  0  0  0  0
 20 21  1  6  0  0  0
 20 27  1  0  0  0  0
 22 23  1  6  0  0  0
 22 29  1  0  0  0  0
 24  2  1  6  0  0  0
 24 31  1  0  0  0  0
 25 26  1  0  0  0  0
 25 33  1  6  0  0  0
 27 28  1  1  0  0  0
 27 35  1  0  0  0  0
 29 30  1  0  0  0  0
 29 37  1  6  0  0  0
 31 32  1  6  0  0  0
 31 39  1  0  0  0  0
 33 34  1  0  0  0  0
 35 36  1  0  0  0  0
 35 41  1  6  0  0  0
 37 38  1  0  0  0  0
 39 40  1  6  0  0  0
 41 42  1  0  0  0  0
M  END
>  <CHROM.1>
-73.92354785,-174.84277436,-172.42184992,117.93489997,-90.59248824,-176.76352418
169.49981161,154.78191049,65.91486678,36.78101117,39.63426027,-13.27318267
-0.38765506,-0.76912959,-1.42461623

>  <Name>
3c44_lig

>  <RI>
0

>  <Rbt.Current_Directory>
/home/itssahil/PROJECTS/Mol_Feturizer/New_Systems/rnas/3c44

>  <Rbt.Executable>
rbdock ($Id: //depot/dev/client3/rdock/2013.1/src/exe/rbdock.cxx#4 $)

>  <Rbt.Library>
libRbt.so (2013.1, Build901 2013/11/27)

>  <Rbt.Parameter_File>
/export/apps/rDock/src/rDock_2013.1_src/data/scripts/dock_solv.prm

>  <Rbt.Receptor>
prm/pocket_docking_5.prm

>  <SCORE>
-11.7218

>  <SCORE.INTER>
-13.1364

>  <SCORE.INTER.CONST>
1

>  <SCORE.INTER.POLAR>
-2.89898

>  <SCORE.INTER.ROT>
9

>  <SCORE.INTER.SOLV>
17.3196

>  <SCORE.INTER.VDW>
-14.4675

>  <SCORE.INTER.norm>
-0.312772

>  <SCORE.INTRA>
1.39223

>  <SCORE.INTRA.DIHEDRAL>
0.414386

>  <SCORE.INTRA.DIHEDRAL.0>
14.8538

>  <SCORE.INTRA.POLAR>
0

>  <SCORE.INTRA.POLAR.0>
0

>  <SCORE.INTRA.REPUL>
0.00327916

>  <SCORE.INTRA.REPUL.0>
0

>  <SCORE.INTRA.SOLV>
-1.19236

>  <SCORE.INTRA.SOLV.lig_0>
-100.951

>  <SCORE.INTRA.VDW>
1.76482

>  <SCORE.INTRA.VDW.0>
-5.71388

>  <SCORE.INTRA.norm>
0.0331483

>  <SCORE.RESTR>
0.0223822

>  <SCORE.RESTR.CAVITY>
0.0223822

>  <SCORE.RESTR.norm>
0.000532909

>  <SCORE.SYSTEM>
0

>  <SCORE.SYSTEM.CONST>
0

>  <SCORE.SYSTEM.DIHEDRAL>
0

>  <SCORE.SYSTEM.SOLV>
0

>  <SCORE.SYSTEM.norm>
0

>  <SCORE.heavy>
42

>  <SCORE.norm>
-0.27909

>  <RMSD>
9.217

$$$$
3c44_lig
 OpenBabel11021811463D
libRbt.so/2013.1/901 2013/11/27
 42 45  0  0  0  0  0  0  0  0999 V2000
   39.5269   42.9349  -13.2124 C   0  0  2  0  0  0  0  0  0  0  0  0
   38.1125   43.0423  -13.4356 O   0  0  0  0  0  0  0  0  0  0  0  0
   35.3653   41.3000  -16.0059 C   0  0  2  0  0  0  0  0  0  0  0  0
   34.5248   40.5143  -16.9225 N   0  0  0  0  0  0  0  0  0  0  0  0
   36.7932   39.4786  -12.5167 C   0  0  1  0  0  0  0  0  0  0  0  0
   37.5159   35.9082  -12.9468 C   0  0  1  0  0  0  0  0  0  0  0  0
   39.8642   43.5305  -11.8415 C   0  0  2  0  0  0  0  0  0  0  0  0
   39.0597   42.9008  -10.7844 N   0  0  0  0  0  0  0  0  0  0  0  0
   36.7783   41.4614  -16.5738 C   0  0  0  0  0  0  0  0  0  0  0  0
   38.3177   39.3998  -12.4230 C   0  0  2  0  0  0  0  0  0  0  0  0
   38.9004   39.6800  -13.6972 O   0  0  0  0  0  0  0  0  0  0  0  0
   38.5347   34.8191  -12.5954 C   0  0  2  0  0  0  0  0  0  0  0  0
   39.4739   34.6864  -13.7176 N   0  0  0  0  0  0  0  0  0  0  0  0
   39.6258   45.0423  -11.8173 C   0  0  1  0  0  0  0  0  0  0  0  0
   40.1018   45.5747  -10.5774 O   0  0  0  0  0  0  0  0  0  0  0  0
   37.5461   42.4135  -15.6509 C   0  0  2  0  0  0  0  0  0  0  0  0
   38.9300   42.5455  -16.1308 N   0  0  0  0  0  0  0  0  0  0  0  0
   38.4801   37.9107  -12.1242 C   0  0  2  0  0  0  0  0  0  0  0  0
   38.2063   37.1216  -13.2935 O   0  0  0  0  0  0  0  0  0  0  0  0
   37.8442   33.4686  -12.3645 C   0  0  1  0  0  0  0  0  0  0  0  0
   37.0989   33.4911  -11.1443 O   0  0  0  0  0  0  0  0  0  0  0  0
   40.3715   45.7040  -12.9776 C   0  0  2  0  0  0  0  0  0  0  0  0
   40.0582   47.0988  -13.0170 O   0  0  0  0  0  0  0  0  0  0  0  0
   37.5711   41.9444  -14.1908 C   0  0  2  0  0  0  0  0  0  0  0  0
   37.3706   37.7102  -11.1040 C   0  0  2  0  0  0  0  0  0  0  0  0
   36.3388   38.6716  -11.4145 O   0  0  0  0  0  0  0  0  0  0  0  0
   36.8935   33.1336  -13.5150 C   0  0  2  0  0  0  0  0  0  0  0  0
   37.6639   32.8918  -14.6957 O   0  0  0  0  0  0  0  0  0  0  0  0
   39.9572   45.0456  -14.2944 C   0  0  2  0  0  0  0  0  0  0  0  0
   40.2365   43.6323  -14.2531 O   0  0  0  0  0  0  0  0  0  0  0  0
   36.2063   41.5372  -13.6393 C   0  0  2  0  0  0  0  0  0  0  0  0
   36.3837   40.8514  -12.3891 O   0  0  0  0  0  0  0  0  0  0  0  0
   37.9258   37.9351   -9.6959 C   0  0  0  0  0  0  0  0  0  0  0  0
   37.0400   37.3419   -8.7439 O   0  0  0  0  0  0  0  0  0  0  0  0
   35.9391   34.3110  -13.7310 C   0  0  1  0  0  0  0  0  0  0  0  0
   36.7191   35.4740  -14.0604 O   0  0  0  0  0  0  0  0  0  0  0  0
   40.7621   45.7056  -15.4169 C   0  0  0  0  0  0  0  0  0  0  0  0
   40.5456   44.9885  -16.6817 O   0  0  0  0  0  0  0  0  0  0  0  0
   35.4615   40.6350  -14.6305 C   0  0  1  0  0  0  0  0  0  0  0  0
   34.1538   40.3392  -14.1351 O   0  0  0  0  0  0  0  0  0  0  0  0
   34.9376   34.0456  -14.8557 C   0  0  0  0  0  0  0  0  0  0  0  0
   33.9095   33.1109  -14.3773 N   0  0  0  0  0  0  0  0  0  0  0  0
  1  2  1  6  0  0  0
  1  7  1  0  0  0  0
  1 30  1  0  0  0  0
  3  4  1  6  0  0  0
  3  9  1  0  0  0  0
  3 39  1  0  0  0  0
  5 10  1  0  0  0  0
  5 26  1  0  0  0  0
  5 32  1  1  0  0  0
  6 12  1  0  0  0  0
  6 36  1  0  0  0  0
  6 19  1  6  0  0  0
  7  8  1  1  0  0  0
  7 14  1  0  0  0  0
  9 16  1  0  0  0  0
 10 11  1  6  0  0  0
 10 18  1  0  0  0  0
 12 13  1  6  0  0  0
 12 20  1  0  0  0  0
 14 15  1  1  0  0  0
 14 22  1  0  0  0  0
 16 17  1  6  0  0  0
 16 24  1  0  0  0  0
 18 19  1  6  0  0  0
 18 25  1  0  0  0  0
 20 21  1  1  0  0  0
 20 27  1  0  0  0  0
 22 23  1  6  0  0  0
 22 29  1  0  0  0  0
 24  2  1  1  0  0  0
 24 31  1  0  0  0  0
 25 26  1  0  0  0  0
 25 33  1  1  0  0  0
 27 28  1  6  0  0  0
 27 35  1  0  0  0  0
 29 30  1  0  0  0  0
 29 37  1  6  0  0  0
 31 32  1  1  0  0  0
 31 39  1  0  0  0  0
 33 34  1  0  0  0  0
 35 36  1  0  0  0  0
 35 41  1  6  0  0  0
 37 38  1  0  0  0  0
 39 40  1  1  0  0  0
 41 42  1  0  0  0  0
M  END
>  <CHROM.1>
-146.04768941,94.36954269,-87.17065508,-142.36641910,-95.13772946,-161.48454780
172.14355578,-78.66177330,75.17600994,37.79323131,39.75678436,-13.35661360
-1.02290064,1.04635088,2.59301888

>  <Name>
3c44_lig

>  <RI>
0

>  <Rbt.Current_Directory>
/home/itssahil/PROJECTS/Mol_Feturizer/New_Systems/rnas/3c44

>  <Rbt.Executable>
rbdock ($Id: //depot/dev/client3/rdock/2013.1/src/exe/rbdock.cxx#4 $)

>  <Rbt.Library>
libRbt.so (2013.1, Build901 2013/11/27)

>  <Rbt.Parameter_File>
/export/apps/rDock/src/rDock_2013.1_src/data/scripts/dock_solv.prm

>  <Rbt.Receptor>
prm/pocket_docking_5.prm

>  <SCORE>
-14.3737

>  <SCORE.INTER>
-25.8013

>  <SCORE.INTER.CONST>
1

>  <SCORE.INTER.POLAR>
-4.28945

>  <SCORE.INTER.ROT>
9

>  <SCORE.INTER.SOLV>
21.109

>  <SCORE.INTER.VDW>
-19.539

>  <SCORE.INTER.norm>
-0.614316

>  <SCORE.INTRA>
11.4276

>  <SCORE.INTRA.DIHEDRAL>
10.1106

>  <SCORE.INTRA.DIHEDRAL.0>
14.8538

>  <SCORE.INTRA.POLAR>
0

>  <SCORE.INTRA.POLAR.0>
0

>  <SCORE.INTRA.REPUL>
0

>  <SCORE.INTRA.REPUL.0>
0

>  <SCORE.INTRA.SOLV>
0.1793

>  <SCORE.INTRA.SOLV.lig_0>
-100.951

>  <SCORE.INTRA.VDW>
6.28266

>  <SCORE.INTRA.VDW.0>
-5.71388

>  <SCORE.INTRA.norm>
0.272085

>  <SCORE.RESTR>
0

>  <SCORE.RESTR.CAVITY>
0

>  <SCORE.RESTR.norm>
0

>  <SCORE.SYSTEM>
0

>  <SCORE.SYSTEM.CONST>
0

>  <SCORE.SYSTEM.DIHEDRAL>
0

>  <SCORE.SYSTEM.SOLV>
0

>  <SCORE.SYSTEM.norm>
0

>  <SCORE.heavy>
42

>  <SCORE.norm>
-0.342231

>  <RMSD>
9.232

$$$$
3c44_lig
 OpenBabel11021811463D
libRbt.so/2013.1/901 2013/11/27
 42 45  0  0  0  0  0  0  0  0999 V2000
   37.1039   34.2081  -17.3188 C   0  0  2  0  0  0  0  0  0  0  0  0
   37.4640   33.2019  -16.3598 O   0  0  0  0  0  0  0  0  0  0  0  0
   36.9087   32.9908  -12.2566 C   0  0  2  0  0  0  0  0  0  0  0  0
   36.8385   33.0888  -10.7905 N   0  0  0  0  0  0  0  0  0  0  0  0
   34.3664   35.0349  -15.6653 C   0  0  1  0  0  0  0  0  0  0  0  0
   30.3626   34.0766  -16.6383 C   0  0  1  0  0  0  0  0  0  0  0  0
   36.7441   33.5301  -18.6450 C   0  0  2  0  0  0  0  0  0  0  0  0
   35.6994   32.5149  -18.4479 N   0  0  0  0  0  0  0  0  0  0  0  0
   38.3650   32.9062  -12.7226 C   0  0  0  0  0  0  0  0  0  0  0  0
   33.3353   34.7890  -14.5628 C   0  0  2  0  0  0  0  0  0  0  0  0
   33.3283   33.4069  -14.2004 O   0  0  0  0  0  0  0  0  0  0  0  0
   30.0810   32.9626  -17.6520 C   0  0  2  0  0  0  0  0  0  0  0  0
   31.0109   33.1184  -18.7790 N   0  0  0  0  0  0  0  0  0  0  0  0
   37.9689   32.8695  -19.2828 C   0  0  1  0  0  0  0  0  0  0  0  0
   37.6211   32.3907  -20.5855 O   0  0  0  0  0  0  0  0  0  0  0  0
   38.3572   32.6502  -14.2334 C   0  0  2  0  0  0  0  0  0  0  0  0
   39.7415   32.6236  -14.7294 N   0  0  0  0  0  0  0  0  0  0  0  0
   32.0548   35.1023  -15.3342 C   0  0  2  0  0  0  0  0  0  0  0  0
   31.7532   34.0555  -16.2714 O   0  0  0  0  0  0  0  0  0  0  0  0
   28.6431   33.0455  -18.1807 C   0  0  1  0  0  0  0  0  0  0  0  0
   27.7137   32.6708  -17.1605 O   0  0  0  0  0  0  0  0  0  0  0  0
   39.1059   33.8864  -19.3986 C   0  0  2  0  0  0  0  0  0  0  0  0
   40.2813   33.2386  -19.8921 O   0  0  0  0  0  0  0  0  0  0  0  0
   37.5705   33.7079  -15.0176 C   0  0  2  0  0  0  0  0  0  0  0  0
   32.4836   36.3515  -16.0876 C   0  0  2  0  0  0  0  0  0  0  0  0
   33.9074   36.2416  -16.3024 O   0  0  0  0  0  0  0  0  0  0  0  0
   28.3113   34.4625  -18.6514 C   0  0  2  0  0  0  0  0  0  0  0  0
   29.0888   34.7567  -19.8155 O   0  0  0  0  0  0  0  0  0  0  0  0
   39.3912   34.4940  -18.0243 C   0  0  2  0  0  0  0  0  0  0  0  0
   38.2031   35.1201  -17.5011 O   0  0  0  0  0  0  0  0  0  0  0  0
   36.1859   34.0098  -14.4483 C   0  0  2  0  0  0  0  0  0  0  0  0
   35.6650   35.1968  -15.0684 O   0  0  0  0  0  0  0  0  0  0  0  0
   32.1473   37.5901  -15.2544 C   0  0  0  0  0  0  0  0  0  0  0  0
   32.9780   37.6108  -14.0914 O   0  0  0  0  0  0  0  0  0  0  0  0
   28.6371   35.4495  -17.5273 C   0  0  1  0  0  0  0  0  0  0  0  0
   30.0398   35.3475  -17.2250 O   0  0  0  0  0  0  0  0  0  0  0  0
   40.4986   35.5364  -18.1984 C   0  0  0  0  0  0  0  0  0  0  0  0
   40.8519   36.1195  -16.8961 O   0  0  0  0  0  0  0  0  0  0  0  0
   36.2473   34.1973  -12.9277 C   0  0  1  0  0  0  0  0  0  0  0  0
   34.9309   34.3898  -12.4052 O   0  0  0  0  0  0  0  0  0  0  0  0
   28.3122   36.8933  -17.9124 C   0  0  0  0  0  0  0  0  0  0  0  0
   27.0207   37.2724  -17.3226 N   0  0  0  0  0  0  0  0  0  0  0  0
  1  2  1  1  0  0  0
  1  7  1  0  0  0  0
  1 30  1  0  0  0  0
  3  4  1  1  0  0  0
  3  9  1  0  0  0  0
  3 39  1  0  0  0  0
  5 10  1  0  0  0  0
  5 26  1  0  0  0  0
  5 32  1  1  0  0  0
  6 12  1  0  0  0  0
  6 36  1  0  0  0  0
  6 19  1  6  0  0  0
  7  8  1  1  0  0  0
  7 14  1  0  0  0  0
  9 16  1  0  0  0  0
 10 11  1  6  0  0  0
 10 18  1  0  0  0  0
 12 13  1  6  0  0  0
 12 20  1  0  0  0  0
 14 15  1  6  0  0  0
 14 22  1  0  0  0  0
 16 17  1  6  0  0  0
 16 24  1  0  0  0  0
 18 19  1  6  0  0  0
 18 25  1  0  0  0  0
 20 21  1  1  0  0  0
 20 27  1  0  0  0  0
 22 23  1  1  0  0  0
 22 29  1  0  0  0  0
 24  2  1  6  0  0  0
 24 31  1  0  0  0  0
 25 26  1  0  0  0  0
 25 33  1  1  0  0  0
 27 28  1  6  0  0  0
 27 35  1  0  0  0  0
 29 30  1  0  0  0  0
 29 37  1  6  0  0  0
 31 32  1  6  0  0  0
 31 39  1  0  0  0  0
 33 34  1  0  0  0  0
 35 36  1  0  0  0  0
 35 41  1  6  0  0  0
 37 38  1  0  0  0  0
 39 40  1  1  0  0  0
 41 42  1  0  0  0  0
M  END
>  <CHROM.1>
-168.76661090,67.08494689,179.18371097,159.06419144,-163.09774188,67.82545697
-177.84057137,125.97172733,99.83780684,34.46611069,34.37727367,-16.43653624
-0.09030243,0.12624049,-1.65839864

>  <Name>
3c44_lig

>  <RI>
0

>  <Rbt.Current_Directory>
/home/itssahil/PROJECTS/Mol_Feturizer/New_Systems/rnas/3c44

>  <Rbt.Executable>
rbdock ($Id: //depot/dev/client3/rdock/2013.1/src/exe/rbdock.cxx#4 $)

>  <Rbt.Library>
libRbt.so (2013.1, Build901 2013/11/27)

>  <Rbt.Parameter_File>
/export/apps/rDock/src/rDock_2013.1_src/data/scripts/dock_solv.prm

>  <Rbt.Receptor>
prm/pocket_docking_7.prm

>  <SCORE>
-10.1225

>  <SCORE.INTER>
-10.8588

>  <SCORE.INTER.CONST>
1

>  <SCORE.INTER.POLAR>
-1.7077

>  <SCORE.INTER.ROT>
9

>  <SCORE.INTER.SOLV>
22.4141

>  <SCORE.INTER.VDW>
-18.6182

>  <SCORE.INTER.norm>
-0.258542

>  <SCORE.INTRA>
0.726943

>  <SCORE.INTRA.DIHEDRAL>
0.74758

>  <SCORE.INTRA.DIHEDRAL.0>
14.8538

>  <SCORE.INTRA.POLAR>
0

>  <SCORE.INTRA.POLAR.0>
0

>  <SCORE.INTRA.REPUL>
0

>  <SCORE.INTRA.REPUL.0>
0

>  <SCORE.INTRA.SOLV>
-3.83224

>  <SCORE.INTRA.SOLV.lig_0>
-100.951

>  <SCORE.INTRA.VDW>
2.26927

>  <SCORE.INTRA.VDW.0>
-5.71388

>  <SCORE.INTRA.norm>
0.0173082

>  <SCORE.RESTR>
0.00935066

>  <SCORE.RESTR.CAVITY>
0.00935066

>  <SCORE.RESTR.norm>
0.000222635

>  <SCORE.SYSTEM>
0

>  <SCORE.SYSTEM.CONST>
0

>  <SCORE.SYSTEM.DIHEDRAL>
0

>  <SCORE.SYSTEM.SOLV>
0

>  <SCORE.SYSTEM.norm>
0

>  <SCORE.heavy>
42

>  <SCORE.norm>
-0.241011

>  <RMSD>
9.245

$$$$
3c44_lig
 OpenBabel11021811463D
libRbt.so/2013.1/901 2013/11/27
 42 45  0  0  0  0  0  0  0  0999 V2000
   39.2211   42.8063  -13.2251 C   0  0  2  0  0  0  0  0  0  0  0  0
   39.1217   41.6217  -12.4199 O   0  0  0  0  0  0  0  0  0  0  0  0
   36.9492   41.1101   -8.9259 C   0  0  2  0  0  0  0  0  0  0  0  0
   36.0094   40.9960   -7.8000 N   0  0  0  0  0  0  0  0  0  0  0  0
   37.5227   37.8815  -11.9950 C   0  0  1  0  0  0  0  0  0  0  0  0
   37.7046   33.6829  -11.9307 C   0  0  1  0  0  0  0  0  0  0  0  0
   38.1976   42.7262  -14.3626 C   0  0  2  0  0  0  0  0  0  0  0  0
   36.8452   42.4940  -13.8351 N   0  0  0  0  0  0  0  0  0  0  0  0
   36.9274   42.5273   -9.5056 C   0  0  0  0  0  0  0  0  0  0  0  0
   37.2134   37.1069  -13.2769 C   0  0  2  0  0  0  0  0  0  0  0  0
   35.8115   36.8442  -13.3624 O   0  0  0  0  0  0  0  0  0  0  0  0
   37.6603   33.0747  -13.3363 C   0  0  2  0  0  0  0  0  0  0  0  0
   36.2969   33.2276  -13.8625 N   0  0  0  0  0  0  0  0  0  0  0  0
   38.5478   41.6092  -15.3490 C   0  0  1  0  0  0  0  0  0  0  0  0
   37.6611   41.6754  -16.4700 O   0  0  0  0  0  0  0  0  0  0  0  0
   38.0335   42.6162  -10.5624 C   0  0  2  0  0  0  0  0  0  0  0  0
   38.0038   43.9474  -11.1868 N   0  0  0  0  0  0  0  0  0  0  0  0
   37.9413   35.7999  -12.9694 C   0  0  2  0  0  0  0  0  0  0  0  0
   37.2319   35.0406  -11.9767 O   0  0  0  0  0  0  0  0  0  0  0  0
   38.0153   31.5824  -13.3055 C   0  0  1  0  0  0  0  0  0  0  0  0
   39.4053   31.4057  -13.0202 O   0  0  0  0  0  0  0  0  0  0  0  0
   39.9911   41.7739  -15.8286 C   0  0  2  0  0  0  0  0  0  0  0  0
   40.3492   40.6689  -16.6627 O   0  0  0  0  0  0  0  0  0  0  0  0
   37.9030   41.5519  -11.6591 C   0  0  2  0  0  0  0  0  0  0  0  0
   39.2330   36.3359  -12.3725 C   0  0  2  0  0  0  0  0  0  0  0  0
   38.9128   37.5986  -11.7494 O   0  0  0  0  0  0  0  0  0  0  0  0
   37.1980   30.8449  -12.2435 C   0  0  2  0  0  0  0  0  0  0  0  0
   35.8250   30.8303  -12.6445 O   0  0  0  0  0  0  0  0  0  0  0  0
   40.9282   41.8328  -14.6212 C   0  0  2  0  0  0  0  0  0  0  0  0
   40.5549   42.9224  -13.7548 O   0  0  0  0  0  0  0  0  0  0  0  0
   37.6800   40.1349  -11.1348 C   0  0  2  0  0  0  0  0  0  0  0  0
   37.2859   39.2819  -12.2219 O   0  0  0  0  0  0  0  0  0  0  0  0
   40.2706   36.5179  -13.4823 C   0  0  0  0  0  0  0  0  0  0  0  0
   40.5209   35.2536  -14.1002 O   0  0  0  0  0  0  0  0  0  0  0  0
   37.3560   31.5675  -10.9030 C   0  0  1  0  0  0  0  0  0  0  0  0
   36.8690   32.9129  -11.0517 O   0  0  0  0  0  0  0  0  0  0  0  0
   42.3500   42.0457  -15.1470 C   0  0  0  0  0  0  0  0  0  0  0  0
   42.7660   40.8923  -15.9579 O   0  0  0  0  0  0  0  0  0  0  0  0
   36.6064   40.1180  -10.0401 C   0  0  1  0  0  0  0  0  0  0  0  0
   36.4773   38.8001   -9.5021 O   0  0  0  0  0  0  0  0  0  0  0  0
   36.5829   30.8773   -9.7786 C   0  0  0  0  0  0  0  0  0  0  0  0
   35.1607   30.8067  -10.1418 N   0  0  0  0  0  0  0  0  0  0  0  0
  1  2  1  6  0  0  0
  1  7  1  0  0  0  0
  1 30  1  0  0  0  0
  3  4  1  1  0  0  0
  3  9  1  0  0  0  0
  3 39  1  0  0  0  0
  5 10  1  0  0  0  0
  5 26  1  0  0  0  0
  5 32  1  6  0  0  0
  6 12  1  0  0  0  0
  6 36  1  0  0  0  0
  6 19  1  6  0  0  0
  7  8  1  1  0  0  0
  7 14  1  0  0  0  0
  9 16  1  0  0  0  0
 10 11  1  1  0  0  0
 10 18  1  0  0  0  0
 12 13  1  1  0  0  0
 12 20  1  0  0  0  0
 14 15  1  6  0  0  0
 14 22  1  0  0  0  0
 16 17  1  6  0  0  0
 16 24  1  0  0  0  0
 18 19  1  1  0  0  0
 18 25  1  0  0  0  0
 20 21  1  1  0  0  0
 20 27  1  0  0  0  0
 22 23  1  6  0  0  0
 22 29  1  0  0  0  0
 24  2  1  1  0  0  0
 24 31  1  0  0  0  0
 25 26  1  0  0  0  0
 25 33  1  6  0  0  0
 27 28  1  6  0  0  0
 27 35  1  0  0  0  0
 29 30  1  0  0  0  0
 29 37  1  6  0  0  0
 31 32  1  6  0  0  0
 31 39  1  0  0  0  0
 33 34  1  0  0  0  0
 35 36  1  0  0  0  0
 35 41  1  1  0  0  0
 37 38  1  0  0  0  0
 39 40  1  1  0  0  0
 41 42  1  0  0  0  0
M  END
>  <CHROM.1>
-69.42514014,-173.54880374,-52.92493107,165.14497102,-71.18047349,-60.28145485
-63.71523898,157.99528539,-57.97058381,38.14018811,37.91334347,-12.59475691
-1.23546591,-0.96052978,-3.00364911

>  <Name>
3c44_lig

>  <RI>
0

>  <Rbt.Current_Directory>
/home/itssahil/PROJECTS/Mol_Feturizer/New_Systems/rnas/3c44

>  <Rbt.Executable>
rbdock ($Id: //depot/dev/client3/rdock/2013.1/src/exe/rbdock.cxx#4 $)

>  <Rbt.Library>
libRbt.so (2013.1, Build901 2013/11/27)

>  <Rbt.Parameter_File>
/export/apps/rDock/src/rDock_2013.1_src/data/scripts/dock_solv.prm

>  <Rbt.Receptor>
prm/pocket_docking_4.prm

>  <SCORE>
-11.8799

>  <SCORE.INTER>
-15.2988

>  <SCORE.INTER.CONST>
1

>  <SCORE.INTER.POLAR>
-1.5974

>  <SCORE.INTER.ROT>
9

>  <SCORE.INTER.SOLV>
16.9819

>  <SCORE.INTER.VDW>
-20.1352

>  <SCORE.INTER.norm>
-0.364258

>  <SCORE.INTRA>
3.30877

>  <SCORE.INTRA.DIHEDRAL>
-9.74705

>  <SCORE.INTRA.DIHEDRAL.0>
14.8538

>  <SCORE.INTRA.POLAR>
0

>  <SCORE.INTRA.POLAR.0>
0

>  <SCORE.INTRA.REPUL>
0.00599516

>  <SCORE.INTRA.REPUL.0>
0

>  <SCORE.INTRA.SOLV>
3.15298

>  <SCORE.INTRA.SOLV.lig_0>
-100.951

>  <SCORE.INTRA.VDW>
6.57584

>  <SCORE.INTRA.VDW.0>
-5.71388

>  <SCORE.INTRA.norm>
0.0787803

>  <SCORE.RESTR>
0.110185

>  <SCORE.RESTR.CAVITY>
0.110185

>  <SCORE.RESTR.norm>
0.00262346

>  <SCORE.SYSTEM>
0

>  <SCORE.SYSTEM.CONST>
0

>  <SCORE.SYSTEM.DIHEDRAL>
0

>  <SCORE.SYSTEM.SOLV>
0

>  <SCORE.SYSTEM.norm>
0

>  <SCORE.heavy>
42

>  <SCORE.norm>
-0.282854

>  <RMSD>
9.282

$$$$
3c44_lig
 OpenBabel11021811463D
libRbt.so/2013.1/901 2013/11/27
 42 45  0  0  0  0  0  0  0  0999 V2000
   37.6430   42.5083  -13.1955 C   0  0  2  0  0  0  0  0  0  0  0  0
   38.5282   41.4276  -12.8634 O   0  0  0  0  0  0  0  0  0  0  0  0
   38.7504   38.5369   -9.8996 C   0  0  2  0  0  0  0  0  0  0  0  0
   38.7831   37.6703   -8.7114 N   0  0  0  0  0  0  0  0  0  0  0  0
   35.1176   39.7471  -12.5366 C   0  0  1  0  0  0  0  0  0  0  0  0
   32.7558   38.0680  -15.4819 C   0  0  1  0  0  0  0  0  0  0  0  0
   37.9657   43.0036  -14.6092 C   0  0  2  0  0  0  0  0  0  0  0  0
   37.9194   41.8968  -15.5755 N   0  0  0  0  0  0  0  0  0  0  0  0
   39.7145   39.7153   -9.7347 C   0  0  0  0  0  0  0  0  0  0  0  0
   35.5597   40.0099  -13.9769 C   0  0  2  0  0  0  0  0  0  0  0  0
   35.0122   41.2467  -14.4377 O   0  0  0  0  0  0  0  0  0  0  0  0
   33.4006   37.9175  -16.8637 C   0  0  2  0  0  0  0  0  0  0  0  0
   33.3936   39.2313  -17.5217 N   0  0  0  0  0  0  0  0  0  0  0  0
   39.3472   43.6602  -14.6672 C   0  0  1  0  0  0  0  0  0  0  0  0
   39.5372   44.2449  -15.9592 O   0  0  0  0  0  0  0  0  0  0  0  0
   39.7452   40.4821  -11.0610 C   0  0  2  0  0  0  0  0  0  0  0  0
   40.6156   41.6595  -10.9222 N   0  0  0  0  0  0  0  0  0  0  0  0
   34.8404   38.8607  -14.6803 C   0  0  2  0  0  0  0  0  0  0  0  0
   33.4261   39.1068  -14.7467 O   0  0  0  0  0  0  0  0  0  0  0  0
   32.6203   36.9233  -17.7336 C   0  0  1  0  0  0  0  0  0  0  0  0
   32.7974   35.5897  -17.2487 O   0  0  0  0  0  0  0  0  0  0  0  0
   39.4515   44.7459  -13.5945 C   0  0  2  0  0  0  0  0  0  0  0  0
   40.7778   45.2802  -13.5790 O   0  0  0  0  0  0  0  0  0  0  0  0
   38.3565   40.9444  -11.5196 C   0  0  2  0  0  0  0  0  0  0  0  0
   35.1139   37.7253  -13.7066 C   0  0  2  0  0  0  0  0  0  0  0  0
   35.2356   38.3192  -12.3959 O   0  0  0  0  0  0  0  0  0  0  0  0
   31.1261   37.2506  -17.7369 C   0  0  2  0  0  0  0  0  0  0  0  0
   30.9260   38.4894  -18.4236 O   0  0  0  0  0  0  0  0  0  0  0  0
   39.1214   44.1471  -12.2263 C   0  0  2  0  0  0  0  0  0  0  0  0
   37.7990   43.5742  -12.2403 O   0  0  0  0  0  0  0  0  0  0  0  0
   37.2865   39.8555  -11.4752 C   0  0  2  0  0  0  0  0  0  0  0  0
   35.9908   40.4547  -11.6391 O   0  0  0  0  0  0  0  0  0  0  0  0
   36.4053   37.0094  -14.1079 C   0  0  0  0  0  0  0  0  0  0  0  0
   36.2423   36.4472  -15.4118 O   0  0  0  0  0  0  0  0  0  0  0  0
   30.6364   37.3560  -16.2902 C   0  0  1  0  0  0  0  0  0  0  0  0
   31.3689   38.4081  -15.6377 O   0  0  0  0  0  0  0  0  0  0  0  0
   39.1914   45.2771  -11.1960 C   0  0  0  0  0  0  0  0  0  0  0  0
   38.7085   44.8011   -9.8917 O   0  0  0  0  0  0  0  0  0  0  0  0
   37.3433   39.0848  -10.1509 C   0  0  1  0  0  0  0  0  0  0  0  0
   36.3952   38.0152  -10.1665 O   0  0  0  0  0  0  0  0  0  0  0  0
   29.1404   37.6616  -16.2063 C   0  0  0  0  0  0  0  0  0  0  0  0
   28.6138   37.1547  -14.9314 N   0  0  0  0  0  0  0  0  0  0  0  0
  1  2  1  1  0  0  0
  1  7  1  0  0  0  0
  1 30  1  0  0  0  0
  3  4  1  1  0  0  0
  3  9  1  0  0  0  0
  3 39  1  0  0  0  0
  5 10  1  0  0  0  0
  5 26  1  0  0  0  0
  5 32  1  1  0  0  0
  6 12  1  0  0  0  0
  6 36  1  0  0  0  0
  6 19  1  1  0  0  0
  7  8  1  6  0  0  0
  7 14  1  0  0  0  0
  9 16  1  0  0  0  0
 10 11  1  6  0  0  0
 10 18  1  0  0  0  0
 12 13  1  6  0  0  0
 12 20  1  0  0  0  0
 14 15  1  6  0  0  0
 14 22  1  0  0  0  0
 16 17  1  1  0  0  0
 16 24  1  0  0  0  0
 18 19  1  1  0  0  0
 18 25  1  0  0  0  0
 20 21  1  1  0  0  0
 20 27  1  0  0  0  0
 22 23  1  1  0  0  0
 22 29  1  0  0  0  0
 24  2  1  6  0  0  0
 24 31  1  0  0  0  0
 25 26  1  0  0  0  0
 25 33  1  6  0  0  0
 27 28  1  1  0  0  0
 27 35  1  0  0  0  0
 29 30  1  0  0  0  0
 29 37  1  1  0  0  0
 31 32  1  1  0  0  0
 31 39  1  0  0  0  0
 33 34  1  0  0  0  0
 35 36  1  0  0  0  0
 35 41  1  6  0  0  0
 37 38  1  0  0  0  0
 39 40  1  6  0  0  0
 41 42  1  0  0  0  0
M  END
>  <CHROM.1>
176.50619446,-75.38733161,-54.57439999,176.37607880,-147.62812650,-61.88061267
172.44006172,136.29280729,154.07695275,36.00871424,40.09889129,-13.69707272
0.06613111,-0.74460225,-0.76125983

>  <Name>
3c44_lig

>  <RI>
0

>  <Rbt.Current_Directory>
/home/itssahil/PROJECTS/Mol_Feturizer/New_Systems/rnas/3c44

>  <Rbt.Executable>
rbdock ($Id: //depot/dev/client3/rdock/2013.1/src/exe/rbdock.cxx#4 $)

>  <Rbt.Library>
libRbt.so (2013.1, Build901 2013/11/27)

>  <Rbt.Parameter_File>
/export/apps/rDock/src/rDock_2013.1_src/data/scripts/dock_solv.prm

>  <Rbt.Receptor>
prm/pocket_docking_4.prm

>  <SCORE>
-17.2007

>  <SCORE.INTER>
-18.6524

>  <SCORE.INTER.CONST>
1

>  <SCORE.INTER.POLAR>
-3.5516

>  <SCORE.INTER.ROT>
9

>  <SCORE.INTER.SOLV>
25.2027

>  <SCORE.INTER.VDW>
-18.5972

>  <SCORE.INTER.norm>
-0.444105

>  <SCORE.INTRA>
1.1501

>  <SCORE.INTRA.DIHEDRAL>
-0.778708

>  <SCORE.INTRA.DIHEDRAL.0>
14.8538

>  <SCORE.INTRA.POLAR>
0

>  <SCORE.INTRA.POLAR.0>
0

>  <SCORE.INTRA.REPUL>
0

>  <SCORE.INTRA.REPUL.0>
0

>  <SCORE.INTRA.SOLV>
-0.350558

>  <SCORE.INTRA.SOLV.lig_0>
-100.951

>  <SCORE.INTRA.VDW>
1.71473

>  <SCORE.INTRA.VDW.0>
-5.71388

>  <SCORE.INTRA.norm>
0.0273833

>  <SCORE.RESTR>
0.301623

>  <SCORE.RESTR.CAVITY>
0.301623

>  <SCORE.RESTR.norm>
0.0071815

>  <SCORE.SYSTEM>
0

>  <SCORE.SYSTEM.CONST>
0

>  <SCORE.SYSTEM.DIHEDRAL>
0

>  <SCORE.SYSTEM.SOLV>
0

>  <SCORE.SYSTEM.norm>
0

>  <SCORE.heavy>
42

>  <SCORE.norm>
-0.40954

>  <RMSD>
9.292

$$$$
3c44_lig
 OpenBabel11021811463D
libRbt.so/2013.1/901 2013/11/27
 42 45  0  0  0  0  0  0  0  0999 V2000
   39.3844   44.0121  -13.3142 C   0  0  2  0  0  0  0  0  0  0  0  0
   40.7133   43.4682  -13.3180 O   0  0  0  0  0  0  0  0  0  0  0  0
   40.0217   42.1618  -17.1916 C   0  0  2  0  0  0  0  0  0  0  0  0
   39.9889   41.7136  -18.5923 N   0  0  0  0  0  0  0  0  0  0  0  0
   40.9574   39.3099  -13.9813 C   0  0  1  0  0  0  0  0  0  0  0  0
   40.1653   35.2277  -13.7738 C   0  0  1  0  0  0  0  0  0  0  0  0
   39.1112   44.6571  -11.9514 C   0  0  2  0  0  0  0  0  0  0  0  0
   40.1459   45.6489  -11.6243 N   0  0  0  0  0  0  0  0  0  0  0  0
   40.7156   43.5221  -17.0764 C   0  0  0  0  0  0  0  0  0  0  0  0
   41.9489   38.4460  -13.2005 C   0  0  2  0  0  0  0  0  0  0  0  0
   43.0141   38.0299  -14.0571 O   0  0  0  0  0  0  0  0  0  0  0  0
   40.4514   34.1923  -14.8664 C   0  0  2  0  0  0  0  0  0  0  0  0
   40.0850   34.7772  -16.1637 N   0  0  0  0  0  0  0  0  0  0  0  0
   39.0565   43.6068  -10.8392 C   0  0  1  0  0  0  0  0  0  0  0  0
   38.6442   44.2324   -9.6202 O   0  0  0  0  0  0  0  0  0  0  0  0
   40.5756   43.9959  -15.6259 C   0  0  2  0  0  0  0  0  0  0  0  0
   41.2844   45.2740  -15.4611 N   0  0  0  0  0  0  0  0  0  0  0  0
   41.0593   37.2413  -12.9004 C   0  0  2  0  0  0  0  0  0  0  0  0
   40.8416   36.4583  -14.0856 O   0  0  0  0  0  0  0  0  0  0  0  0
   39.6292   32.9154  -14.6483 C   0  0  1  0  0  0  0  0  0  0  0  0
   40.1171   32.1954  -13.5133 O   0  0  0  0  0  0  0  0  0  0  0  0
   38.0601   42.5075  -11.2120 C   0  0  2  0  0  0  0  0  0  0  0  0
   38.0929   41.4741  -10.2241 O   0  0  0  0  0  0  0  0  0  0  0  0
   41.1277   42.9889  -14.6093 C   0  0  2  0  0  0  0  0  0  0  0  0
   39.7675   37.9414  -12.5090 C   0  0  2  0  0  0  0  0  0  0  0  0
   39.7336   39.1906  -13.2327 O   0  0  0  0  0  0  0  0  0  0  0  0
   38.1523   33.2443  -14.4240 C   0  0  2  0  0  0  0  0  0  0  0  0
   37.6048   33.7637  -15.6392 O   0  0  0  0  0  0  0  0  0  0  0  0
   38.4270   41.9258  -12.5781 C   0  0  2  0  0  0  0  0  0  0  0  0
   38.4311   42.9654  -13.5763 O   0  0  0  0  0  0  0  0  0  0  0  0
   40.6512   41.5540  -14.8255 C   0  0  2  0  0  0  0  0  0  0  0  0
   41.4405   40.6641  -14.0193 O   0  0  0  0  0  0  0  0  0  0  0  0
   39.7550   38.1810  -10.9977 C   0  0  0  0  0  0  0  0  0  0  0  0
   40.7375   39.1668  -10.6726 O   0  0  0  0  0  0  0  0  0  0  0  0
   38.0376   34.2783  -13.3009 C   0  0  1  0  0  0  0  0  0  0  0  0
   38.7502   35.4629  -13.6989 O   0  0  0  0  0  0  0  0  0  0  0  0
   37.3781   40.8675  -12.9290 C   0  0  0  0  0  0  0  0  0  0  0  0
   37.5136   40.4705  -14.3379 O   0  0  0  0  0  0  0  0  0  0  0  0
   40.7591   41.1572  -16.3026 C   0  0  1  0  0  0  0  0  0  0  0  0
   40.2259   39.8453  -16.4967 O   0  0  0  0  0  0  0  0  0  0  0  0
   36.5843   34.6466  -12.9993 C   0  0  0  0  0  0  0  0  0  0  0  0
   36.1107   33.8516  -11.8578 N   0  0  0  0  0  0  0  0  0  0  0  0
  1  2  1  1  0  0  0
  1  7  1  0  0  0  0
  1 30  1  0  0  0  0
  3  4  1  6  0  0  0
  3  9  1  0  0  0  0
  3 39  1  0  0  0  0
  5 10  1  0  0  0  0
  5 26  1  0  0  0  0
  5 32  1  1  0  0  0
  6 12  1  0  0  0  0
  6 36  1  0  0  0  0
  6 19  1  6  0  0  0
  7  8  1  1  0  0  0
  7 14  1  0  0  0  0
  9 16  1  0  0  0  0
 10 11  1  6  0  0  0
 10 18  1  0  0  0  0
 12 13  1  6  0  0  0
 12 20  1  0  0  0  0
 14 15  1  1  0  0  0
 14 22  1  0  0  0  0
 16 17  1  6  0  0  0
 16 24  1  0  0  0  0
 18 19  1  6  0  0  0
 18 25  1  0  0  0  0
 20 21  1  1  0  0  0
 20 27  1  0  0  0  0
 22 23  1  1  0  0  0
 22 29  1  0  0  0  0
 24  2  1  1  0  0  0
 24 31  1  0  0  0  0
 25 26  1  0  0  0  0
 25 33  1  1  0  0  0
 27 28  1  6  0  0  0
 27 35  1  0  0  0  0
 29 30  1  0  0  0  0
 29 37  1  6  0  0  0
 31 32  1  1  0  0  0
 31 39  1  0  0  0  0
 33 34  1  0  0  0  0
 35 36  1  0  0  0  0
 35 41  1  6  0  0  0
 37 38  1  0  0  0  0
 39 40  1  1  0  0  0
 41 42  1  0  0  0  0
M  END
>  <CHROM.1>
-172.60575673,174.91788705,-156.70516348,171.88223584,38.90408804,69.16924194
168.41583574,171.05575307,96.83591991,39.64466248,39.43842480,-13.69924154
1.37193869,1.14872141,0.23802557

>  <Name>
3c44_lig

>  <RI>
0

>  <Rbt.Current_Directory>
/home/itssahil/PROJECTS/Mol_Feturizer/New_Systems/rnas/3c44

>  <Rbt.Executable>
rbdock ($Id: //depot/dev/client3/rdock/2013.1/src/exe/rbdock.cxx#4 $)

>  <Rbt.Library>
libRbt.so (2013.1, Build901 2013/11/27)

>  <Rbt.Parameter_File>
/export/apps/rDock/src/rDock_2013.1_src/data/scripts/dock_solv.prm

>  <Rbt.Receptor>
prm/pocket_docking_4.prm

>  <SCORE>
-10.2658

>  <SCORE.INTER>
-10.7647

>  <SCORE.INTER.CONST>
1

>  <SCORE.INTER.POLAR>
-0.875812

>  <SCORE.INTER.ROT>
9

>  <SCORE.INTER.SOLV>
14.8358

>  <SCORE.INTER.VDW>
-18.8023

>  <SCORE.INTER.norm>
-0.256302

>  <SCORE.INTRA>
0.498926

>  <SCORE.INTRA.DIHEDRAL>
-4.64003

>  <SCORE.INTRA.DIHEDRAL.0>
14.8538

>  <SCORE.INTRA.POLAR>
0

>  <SCORE.INTRA.POLAR.0>
0

>  <SCORE.INTRA.REPUL>
0.0286162

>  <SCORE.INTRA.REPUL.0>
0

>  <SCORE.INTRA.SOLV>
-2.44407

>  <SCORE.INTRA.SOLV.lig_0>
-100.951

>  <SCORE.INTRA.VDW>
3.8979

>  <SCORE.INTRA.VDW.0>
-5.71388

>  <SCORE.INTRA.norm>
0.0118792

>  <SCORE.RESTR>
0

>  <SCORE.RESTR.CAVITY>
0

>  <SCORE.RESTR.norm>
0

>  <SCORE.SYSTEM>
0

>  <SCORE.SYSTEM.CONST>
0

>  <SCORE.SYSTEM.DIHEDRAL>
0

>  <SCORE.SYSTEM.SOLV>
0

>  <SCORE.SYSTEM.norm>
0

>  <SCORE.heavy>
42

>  <SCORE.norm>
-0.244423

>  <RMSD>
9.302

$$$$
3c44_lig
 OpenBabel11021811463D
libRbt.so/2013.1/901 2013/11/27
 42 45  0  0  0  0  0  0  0  0999 V2000
   40.5388   41.3280  -12.9253 C   0  0  2  0  0  0  0  0  0  0  0  0
   40.0262   42.2082  -11.9133 O   0  0  0  0  0  0  0  0  0  0  0  0
   36.3500   41.9165  -10.0185 C   0  0  2  0  0  0  0  0  0  0  0  0
   34.9638   41.8953   -9.5268 N   0  0  0  0  0  0  0  0  0  0  0  0
   38.2513   38.6386  -12.5016 C   0  0  1  0  0  0  0  0  0  0  0  0
   38.2516   34.4455  -12.4213 C   0  0  1  0  0  0  0  0  0  0  0  0
   42.0573   41.5081  -13.0234 C   0  0  2  0  0  0  0  0  0  0  0  0
   42.6932   41.3181  -11.7116 N   0  0  0  0  0  0  0  0  0  0  0  0
   36.7411   43.3269  -10.4692 C   0  0  0  0  0  0  0  0  0  0  0  0
   38.3497   37.8832  -13.8278 C   0  0  2  0  0  0  0  0  0  0  0  0
   37.0444   37.6821  -14.3731 O   0  0  0  0  0  0  0  0  0  0  0  0
   38.3282   33.7199  -13.7687 C   0  0  2  0  0  0  0  0  0  0  0  0
   37.0396   33.8845  -14.4553 N   0  0  0  0  0  0  0  0  0  0  0  0
   42.4200   42.8958  -13.5582 C   0  0  1  0  0  0  0  0  0  0  0  0
   43.8318   42.9605  -13.7815 O   0  0  0  0  0  0  0  0  0  0  0  0
   38.2330   43.3081  -10.8185 C   0  0  2  0  0  0  0  0  0  0  0  0
   38.6330   44.6332  -11.3153 N   0  0  0  0  0  0  0  0  0  0  0  0
   38.8836   36.5445  -13.3220 C   0  0  2  0  0  0  0  0  0  0  0  0
   37.8578   35.8130  -12.6309 O   0  0  0  0  0  0  0  0  0  0  0  0
   38.5998   32.2222  -13.5765 C   0  0  1  0  0  0  0  0  0  0  0  0
   39.9398   32.0119  -13.1235 O   0  0  0  0  0  0  0  0  0  0  0  0
   41.6821   43.1544  -14.8731 C   0  0  2  0  0  0  0  0  0  0  0  0
   41.9370   44.4914  -15.3120 O   0  0  0  0  0  0  0  0  0  0  0  0
   38.5891   42.2550  -11.8752 C   0  0  2  0  0  0  0  0  0  0  0  0
   39.9277   37.0215  -12.3248 C   0  0  2  0  0  0  0  0  0  0  0  0
   39.4711   38.2945  -11.8187 O   0  0  0  0  0  0  0  0  0  0  0  0
   37.6353   31.6152  -12.5563 C   0  0  2  0  0  0  0  0  0  0  0  0
   36.3149   31.6243  -13.1064 O   0  0  0  0  0  0  0  0  0  0  0  0
   40.1797   42.9585  -14.6641 C   0  0  2  0  0  0  0  0  0  0  0  0
   39.9138   41.6244  -14.1881 O   0  0  0  0  0  0  0  0  0  0  0  0
   38.0158   40.8672  -11.5958 C   0  0  2  0  0  0  0  0  0  0  0  0
   38.1581   40.0488  -12.7683 O   0  0  0  0  0  0  0  0  0  0  0  0
   41.2787   37.1626  -13.0295 C   0  0  0  0  0  0  0  0  0  0  0  0
   41.2138   38.2537  -13.9504 O   0  0  0  0  0  0  0  0  0  0  0  0
   37.6845   32.4441  -11.2701 C   0  0  1  0  0  0  0  0  0  0  0  0
   37.2870   33.7911  -11.5818 O   0  0  0  0  0  0  0  0  0  0  0  0
   39.4906   43.1799  -16.0130 C   0  0  0  0  0  0  0  0  0  0  0  0
   39.7382   44.5492  -16.4873 O   0  0  0  0  0  0  0  0  0  0  0  0
   36.5386   40.9548  -11.1945 C   0  0  1  0  0  0  0  0  0  0  0  0
   36.0472   39.6571  -10.8517 O   0  0  0  0  0  0  0  0  0  0  0  0
   36.7595   31.8877  -10.1870 C   0  0  0  0  0  0  0  0  0  0  0  0
   35.4325   31.6366  -10.7663 N   0  0  0  0  0  0  0  0  0  0  0  0
  1  2  1  1  0  0  0
  1  7  1  0  0  0  0
  1 30  1  0  0  0  0
  3  4  1  6  0  0  0
  3  9  1  0  0  0  0
  3 39  1  0  0  0  0
  5 10  1  0  0  0  0
  5 26  1  0  0  0  0
  5 32  1  6  0  0  0
  6 12  1  0  0  0  0
  6 36  1  0  0  0  0
  6 19  1  6  0  0  0
  7  8  1  1  0  0  0
  7 14  1  0  0  0  0
  9 16  1  0  0  0  0
 10 11  1  1  0  0  0
 10 18  1  0  0  0  0
 12 13  1  1  0  0  0
 12 20  1  0  0  0  0
 14 15  1  6  0  0  0
 14 22  1  0  0  0  0
 16 17  1  6  0  0  0
 16 24  1  0  0  0  0
 18 19  1  1  0  0  0
 18 25  1  0  0  0  0
 20 21  1  1  0  0  0
 20 27  1  0  0  0  0
 22 23  1  1  0  0  0
 22 29  1  0  0  0  0
 24  2  1  1  0  0  0
 24 31  1  0  0  0  0
 25 26  1  0  0  0  0
 25 33  1  6  0  0  0
 27 28  1  6  0  0  0
 27 35  1  0  0  0  0
 29 30  1  0  0  0  0
 29 37  1  6  0  0  0
 31 32  1  6  0  0  0
 31 39  1  0  0  0  0
 33 34  1  0  0  0  0
 35 36  1  0  0  0  0
 35 41  1  1  0  0  0
 37 38  1  0  0  0  0
 39 40  1  1  0  0  0
 41 42  1  0  0  0  0
M  END
>  <CHROM.1>
171.60445521,178.06396285,-67.39767359,166.86809505,-176.00823304,68.73056151
-61.07870784,152.72739094,-48.65354948,38.87708716,38.75538230,-12.73069585
-1.25558767,-0.62471480,-3.04711214

>  <Name>
3c44_lig

>  <RI>
224

>  <Rbt.Current_Directory>
/home/itssahil/PROJECTS/Mol_Feturizer/New_Systems/rnas/3c44

>  <Rbt.Executable>
rbdock ($Id: //depot/dev/client3/rdock/2013.1/src/exe/rbdock.cxx#4 $)

>  <Rbt.Library>
libRbt.so (2013.1, Build901 2013/11/27)

>  <Rbt.Parameter_File>
/export/apps/rDock/src/rDock_2013.1_src/data/scripts/dock_solv.prm

>  <Rbt.Receptor>
prm/pocket_docking_3.prm

>  <SCORE>
-13.285

>  <SCORE.INTER>
-13.1266

>  <SCORE.INTER.CONST>
1

>  <SCORE.INTER.POLAR>
-1.61538

>  <SCORE.INTER.ROT>
9

>  <SCORE.INTER.SOLV>
26.2535

>  <SCORE.INTER.VDW>
-21.7176

>  <SCORE.INTER.norm>
-0.312538

>  <SCORE.INTRA>
-1.41462

>  <SCORE.INTRA.DIHEDRAL>
-9.10052

>  <SCORE.INTRA.DIHEDRAL.0>
14.8538

>  <SCORE.INTRA.POLAR>
0

>  <SCORE.INTRA.POLAR.0>
0

>  <SCORE.INTRA.REPUL>
0

>  <SCORE.INTRA.REPUL.0>
0

>  <SCORE.INTRA.SOLV>
-1.32361

>  <SCORE.INTRA.SOLV.lig_0>
-100.951

>  <SCORE.INTRA.VDW>
3.79745

>  <SCORE.INTRA.VDW.0>
-5.71388

>  <SCORE.INTRA.norm>
-0.0336814

>  <SCORE.RESTR>
1.25626

>  <SCORE.RESTR.CAVITY>
1.25626

>  <SCORE.RESTR.norm>
0.0299108

>  <SCORE.SYSTEM>
0

>  <SCORE.SYSTEM.CONST>
0

>  <SCORE.SYSTEM.DIHEDRAL>
0

>  <SCORE.SYSTEM.SOLV>
0

>  <SCORE.SYSTEM.norm>
0

>  <SCORE.heavy>
42

>  <SCORE.norm>
-0.316308

>  <RMSD>
9.330

$$$$
3c44_lig
 OpenBabel11021811463D
libRbt.so/2013.1/901 2013/11/27
 42 45  0  0  0  0  0  0  0  0999 V2000
   39.5909   43.1628  -13.4496 C   0  0  2  0  0  0  0  0  0  0  0  0
   39.4644   41.7813  -13.0791 O   0  0  0  0  0  0  0  0  0  0  0  0
   38.6140   39.6457   -9.6287 C   0  0  2  0  0  0  0  0  0  0  0  0
   38.2176   39.0679   -8.3353 N   0  0  0  0  0  0  0  0  0  0  0  0
   36.1809   39.8889  -13.5793 C   0  0  1  0  0  0  0  0  0  0  0  0
   34.1439   37.4507  -16.3126 C   0  0  1  0  0  0  0  0  0  0  0  0
   38.9851   43.3653  -14.8424 C   0  0  2  0  0  0  0  0  0  0  0  0
   37.5996   42.8762  -14.8873 N   0  0  0  0  0  0  0  0  0  0  0  0
   39.4394   40.9188   -9.4207 C   0  0  0  0  0  0  0  0  0  0  0  0
   35.0387   40.5030  -14.3901 C   0  0  2  0  0  0  0  0  0  0  0  0
   33.8119   40.3933  -13.6659 O   0  0  0  0  0  0  0  0  0  0  0  0
   33.0039   38.0927  -17.1101 C   0  0  2  0  0  0  0  0  0  0  0  0
   31.8716   38.3137  -16.2002 N   0  0  0  0  0  0  0  0  0  0  0  0
   39.8045   42.6448  -15.9160 C   0  0  1  0  0  0  0  0  0  0  0  0
   39.2965   42.9911  -17.2080 O   0  0  0  0  0  0  0  0  0  0  0  0
   39.9461   41.3755  -10.7928 C   0  0  2  0  0  0  0  0  0  0  0  0
   40.6939   42.6328  -10.6414 N   0  0  0  0  0  0  0  0  0  0  0  0
   35.0053   39.5284  -15.5657 C   0  0  2  0  0  0  0  0  0  0  0  0
   34.4497   38.2646  -15.1666 O   0  0  0  0  0  0  0  0  0  0  0  0
   32.5480   37.1806  -18.2565 C   0  0  1  0  0  0  0  0  0  0  0  0
   33.5457   37.1280  -19.2796 O   0  0  0  0  0  0  0  0  0  0  0  0
   41.2729   43.0619  -15.8155 C   0  0  2  0  0  0  0  0  0  0  0  0
   42.0520   42.3055  -16.7459 O   0  0  0  0  0  0  0  0  0  0  0  0
   38.8173   41.5902  -11.8088 C   0  0  2  0  0  0  0  0  0  0  0  0
   36.4932   39.3676  -15.8348 C   0  0  2  0  0  0  0  0  0  0  0  0
   37.1689   39.5584  -14.5729 O   0  0  0  0  0  0  0  0  0  0  0  0
   32.2820   35.7599  -17.7559 C   0  0  2  0  0  0  0  0  0  0  0  0
   31.1372   35.7787  -16.8985 O   0  0  0  0  0  0  0  0  0  0  0  0
   41.7803   42.8106  -14.3947 C   0  0  2  0  0  0  0  0  0  0  0  0
   40.9801   43.5412  -13.4444 O   0  0  0  0  0  0  0  0  0  0  0  0
   37.8159   40.4397  -11.8863 C   0  0  2  0  0  0  0  0  0  0  0  0
   36.6644   40.8608  -12.6357 O   0  0  0  0  0  0  0  0  0  0  0  0
   36.9412   40.4101  -16.8614 C   0  0  0  0  0  0  0  0  0  0  0  0
   36.1582   40.2639  -18.0482 O   0  0  0  0  0  0  0  0  0  0  0  0
   33.5129   35.2621  -16.9937 C   0  0  1  0  0  0  0  0  0  0  0  0
   33.7434   36.1412  -15.8786 O   0  0  0  0  0  0  0  0  0  0  0  0
   43.2339   43.2863  -14.3300 C   0  0  0  0  0  0  0  0  0  0  0  0
   44.0614   42.5083  -15.2632 O   0  0  0  0  0  0  0  0  0  0  0  0
   37.3913   39.9871  -10.4842 C   0  0  1  0  0  0  0  0  0  0  0  0
   36.5251   38.8540  -10.5775 O   0  0  0  0  0  0  0  0  0  0  0  0
   33.3349   33.8341  -16.4762 C   0  0  0  0  0  0  0  0  0  0  0  0
   33.2540   32.9124  -17.6179 N   0  0  0  0  0  0  0  0  0  0  0  0
  1  2  1  6  0  0  0
  1  7  1  0  0  0  0
  1 30  1  0  0  0  0
  3  4  1  1  0  0  0
  3  9  1  0  0  0  0
  3 39  1  0  0  0  0
  5 10  1  0  0  0  0
  5 26  1  0  0  0  0
  5 32  1  1  0  0  0
  6 12  1  0  0  0  0
  6 36  1  0  0  0  0
  6 19  1  1  0  0  0
  7  8  1  1  0  0  0
  7 14  1  0  0  0  0
  9 16  1  0  0  0  0
 10 11  1  1  0  0  0
 10 18  1  0  0  0  0
 12 13  1  1  0  0  0
 12 20  1  0  0  0  0
 14 15  1  6  0  0  0
 14 22  1  0  0  0  0
 16 17  1  1  0  0  0
 16 24  1  0  0  0  0
 18 19  1  1  0  0  0
 18 25  1  0  0  0  0
 20 21  1  6  0  0  0
 20 27  1  0  0  0  0
 22 23  1  6  0  0  0
 22 29  1  0  0  0  0
 24  2  1  6  0  0  0
 24 31  1  0  0  0  0
 25 26  1  0  0  0  0
 25 33  1  6  0  0  0
 27 28  1  1  0  0  0
 27 35  1  0  0  0  0
 29 30  1  0  0  0  0
 29 37  1  6  0  0  0
 31 32  1  6  0  0  0
 31 39  1  0  0  0  0
 33 34  1  0  0  0  0
 35 36  1  0  0  0  0
 35 41  1  1  0  0  0
 37 38  1  0  0  0  0
 39 40  1  6  0  0  0
 41 42  1  0  0  0  0
M  END
>  <CHROM.1>
-126.24460368,-175.11866251,-66.84700024,167.35862591,-98.65685782,-56.84605350
-62.00752947,136.75533848,66.26527869,37.04885643,39.89948293,-14.60421916
-0.32488391,-0.68486842,-1.49740791

>  <Name>
3c44_lig

>  <RI>
0

>  <Rbt.Current_Directory>
/home/itssahil/PROJECTS/Mol_Feturizer/New_Systems/rnas/3c44

>  <Rbt.Executable>
rbdock ($Id: //depot/dev/client3/rdock/2013.1/src/exe/rbdock.cxx#4 $)

>  <Rbt.Library>
libRbt.so (2013.1, Build901 2013/11/27)

>  <Rbt.Parameter_File>
/export/apps/rDock/src/rDock_2013.1_src/data/scripts/dock_solv.prm

>  <Rbt.Receptor>
prm/pocket_docking_5.prm

>  <SCORE>
-3.6085

>  <SCORE.INTER>
-7.88574

>  <SCORE.INTER.CONST>
1

>  <SCORE.INTER.POLAR>
-1.86933

>  <SCORE.INTER.ROT>
9

>  <SCORE.INTER.SOLV>
15.8519

>  <SCORE.INTER.VDW>
-13.91

>  <SCORE.INTER.norm>
-0.187756

>  <SCORE.INTRA>
4.27724

>  <SCORE.INTRA.DIHEDRAL>
4.85323

>  <SCORE.INTRA.DIHEDRAL.0>
14.8538

>  <SCORE.INTRA.POLAR>
0

>  <SCORE.INTRA.POLAR.0>
0

>  <SCORE.INTRA.REPUL>
0.00112255

>  <SCORE.INTRA.REPUL.0>
0

>  <SCORE.INTRA.SOLV>
1.62914

>  <SCORE.INTRA.SOLV.lig_0>
-100.951

>  <SCORE.INTRA.VDW>
1.03044

>  <SCORE.INTRA.VDW.0>
-5.71388

>  <SCORE.INTRA.norm>
0.101839

>  <SCORE.RESTR>
0

>  <SCORE.RESTR.CAVITY>
0

>  <SCORE.RESTR.norm>
0

>  <SCORE.SYSTEM>
0

>  <SCORE.SYSTEM.CONST>
0

>  <SCORE.SYSTEM.DIHEDRAL>
0

>  <SCORE.SYSTEM.SOLV>
0

>  <SCORE.SYSTEM.norm>
0

>  <SCORE.heavy>
42

>  <SCORE.norm>
-0.0859166

>  <RMSD>
9.338

$$$$
3c44_lig
 OpenBabel11021811463D
libRbt.so/2013.1/901 2013/11/27
 42 45  0  0  0  0  0  0  0  0999 V2000
   35.1079   39.7142  -13.0012 C   0  0  2  0  0  0  0  0  0  0  0  0
   36.2333   38.9894  -13.5208 O   0  0  0  0  0  0  0  0  0  0  0  0
   37.4650   35.0351  -13.3336 C   0  0  2  0  0  0  0  0  0  0  0  0
   37.8840   33.6529  -13.0542 N   0  0  0  0  0  0  0  0  0  0  0  0
   33.1674   36.6883  -13.8497 C   0  0  1  0  0  0  0  0  0  0  0  0
   30.3242   36.6301  -16.8864 C   0  0  1  0  0  0  0  0  0  0  0  0
   34.8989   40.9813  -13.8370 C   0  0  2  0  0  0  0  0  0  0  0  0
   34.7696   40.6523  -15.2639 N   0  0  0  0  0  0  0  0  0  0  0  0
   38.3516   36.0305  -12.5797 C   0  0  0  0  0  0  0  0  0  0  0  0
   33.4493   37.5502  -15.0812 C   0  0  2  0  0  0  0  0  0  0  0  0
   32.9626   38.8770  -14.8703 O   0  0  0  0  0  0  0  0  0  0  0  0
   29.8324   37.7908  -17.7575 C   0  0  2  0  0  0  0  0  0  0  0  0
   29.1854   38.7805  -16.8851 N   0  0  0  0  0  0  0  0  0  0  0  0
   36.0565   41.9660  -13.6542 C   0  0  1  0  0  0  0  0  0  0  0  0
   35.7431   43.1912  -14.3235 O   0  0  0  0  0  0  0  0  0  0  0  0
   37.9624   37.4405  -13.0362 C   0  0  2  0  0  0  0  0  0  0  0  0
   38.7520   38.4296  -12.2871 N   0  0  0  0  0  0  0  0  0  0  0  0
   32.5476   36.8507  -16.0964 C   0  0  2  0  0  0  0  0  0  0  0  0
   31.1640   37.1376  -15.8347 O   0  0  0  0  0  0  0  0  0  0  0  0
   28.8151   37.3085  -18.7999 C   0  0  1  0  0  0  0  0  0  0  0  0
   29.4633   36.5236  -19.8041 O   0  0  0  0  0  0  0  0  0  0  0  0
   36.2757   42.2387  -12.1649 C   0  0  2  0  0  0  0  0  0  0  0  0
   37.4258   43.0711  -11.9932 O   0  0  0  0  0  0  0  0  0  0  0  0
   36.4721   37.7453  -12.8396 C   0  0  2  0  0  0  0  0  0  0  0  0
   32.8363   35.3947  -15.7664 C   0  0  2  0  0  0  0  0  0  0  0  0
   33.1727   35.3432  -14.3630 O   0  0  0  0  0  0  0  0  0  0  0  0
   27.7185   36.4645  -18.1482 C   0  0  2  0  0  0  0  0  0  0  0  0
   26.9262   37.3065  -17.3059 O   0  0  0  0  0  0  0  0  0  0  0  0
   36.4831   40.9151  -11.4272 C   0  0  2  0  0  0  0  0  0  0  0  0
   35.3442   40.0536  -11.6220 O   0  0  0  0  0  0  0  0  0  0  0  0
   35.5352   36.6595  -13.3648 C   0  0  2  0  0  0  0  0  0  0  0  0
   34.2054   36.9020  -12.8774 O   0  0  0  0  0  0  0  0  0  0  0  0
   33.9982   34.8971  -16.6289 C   0  0  0  0  0  0  0  0  0  0  0  0
   34.2179   33.5102  -16.3621 O   0  0  0  0  0  0  0  0  0  0  0  0
   28.3707   35.3487  -17.3274 C   0  0  1  0  0  0  0  0  0  0  0  0
   29.1946   35.9519  -16.3141 O   0  0  0  0  0  0  0  0  0  0  0  0
   36.6495   41.2341   -9.9392 C   0  0  0  0  0  0  0  0  0  0  0  0
   35.4349   41.8817   -9.4232 O   0  0  0  0  0  0  0  0  0  0  0  0
   36.0080   35.2684  -12.9263 C   0  0  1  0  0  0  0  0  0  0  0  0
   35.1701   34.2633  -13.5014 O   0  0  0  0  0  0  0  0  0  0  0  0
   27.3368   34.4428  -16.6575 C   0  0  0  0  0  0  0  0  0  0  0  0
   28.0246   33.3077  -16.0267 N   0  0  0  0  0  0  0  0  0  0  0  0
  1  2  1  6  0  0  0
  1  7  1  0  0  0  0
  1 30  1  0  0  0  0
  3  4  1  1  0  0  0
  3  9  1  0  0  0  0
  3 39  1  0  0  0  0
  5 10  1  0  0  0  0
  5 26  1  0  0  0  0
  5 32  1  1  0  0  0
  6 12  1  0  0  0  0
  6 36  1  0  0  0  0
  6 19  1  1  0  0  0
  7  8  1  6  0  0  0
  7 14  1  0  0  0  0
  9 16  1  0  0  0  0
 10 11  1  1  0  0  0
 10 18  1  0  0  0  0
 12 13  1  1  0  0  0
 12 20  1  0  0  0  0
 14 15  1  6  0  0  0
 14 22  1  0  0  0  0
 16 17  1  1  0  0  0
 16 24  1  0  0  0  0
 18 19  1  1  0  0  0
 18 25  1  0  0  0  0
 20 21  1  6  0  0  0
 20 27  1  0  0  0  0
 22 23  1  6  0  0  0
 22 29  1  0  0  0  0
 24  2  1  6  0  0  0
 24 31  1  0  0  0  0
 25 26  1  0  0  0  0
 25 33  1  6  0  0  0
 27 28  1  1  0  0  0
 27 35  1  0  0  0  0
 29 30  1  0  0  0  0
 29 37  1  1  0  0  0
 31 32  1  1  0  0  0
 31 39  1  0  0  0  0
 33 34  1  0  0  0  0
 35 36  1  0  0  0  0
 35 41  1  1  0  0  0
 37 38  1  0  0  0  0
 39 40  1  6  0  0  0
 41 42  1  0  0  0  0
M  END
>  <CHROM.1>
-177.17712781,-55.76064925,-105.59271912,172.35150989,-154.92516305,-177.05649655
61.42750788,138.54806296,173.19824782,33.57985855,37.69145426,-14.53139576
0.49687604,-0.52131082,0.17018801

>  <Name>
3c44_lig

>  <RI>
0

>  <Rbt.Current_Directory>
/home/itssahil/PROJECTS/Mol_Feturizer/New_Systems/rnas/3c44

>  <Rbt.Executable>
rbdock ($Id: //depot/dev/client3/rdock/2013.1/src/exe/rbdock.cxx#4 $)

>  <Rbt.Library>
libRbt.so (2013.1, Build901 2013/11/27)

>  <Rbt.Parameter_File>
/export/apps/rDock/src/rDock_2013.1_src/data/scripts/dock_solv.prm

>  <Rbt.Receptor>
prm/pocket_docking_6.prm

>  <SCORE>
-15.8621

>  <SCORE.INTER>
-17.4652

>  <SCORE.INTER.CONST>
1

>  <SCORE.INTER.POLAR>
-2.74573

>  <SCORE.INTER.ROT>
9

>  <SCORE.INTER.SOLV>
21.4961

>  <SCORE.INTER.VDW>
-19.2564

>  <SCORE.INTER.norm>
-0.415838

>  <SCORE.INTRA>
1.60312

>  <SCORE.INTRA.DIHEDRAL>
0.715515

>  <SCORE.INTRA.DIHEDRAL.0>
14.8538

>  <SCORE.INTRA.POLAR>
0

>  <SCORE.INTRA.POLAR.0>
0

>  <SCORE.INTRA.REPUL>
0

>  <SCORE.INTRA.REPUL.0>
0

>  <SCORE.INTRA.SOLV>
-1.02793

>  <SCORE.INTRA.SOLV.lig_0>
-100.951

>  <SCORE.INTRA.VDW>
1.75932

>  <SCORE.INTRA.VDW.0>
-5.71388

>  <SCORE.INTRA.norm>
0.0381694

>  <SCORE.RESTR>
0

>  <SCORE.RESTR.CAVITY>
0

>  <SCORE.RESTR.norm>
0

>  <SCORE.SYSTEM>
0

>  <SCORE.SYSTEM.CONST>
0

>  <SCORE.SYSTEM.DIHEDRAL>
0

>  <SCORE.SYSTEM.SOLV>
0

>  <SCORE.SYSTEM.norm>
0

>  <SCORE.heavy>
42

>  <SCORE.norm>
-0.377668

>  <RMSD>
9.384

$$$$
3c44_lig
 OpenBabel11021811463D
libRbt.so/2013.1/901 2013/11/27
 42 45  0  0  0  0  0  0  0  0999 V2000
   41.7054   42.4884  -14.8912 C   0  0  2  0  0  0  0  0  0  0  0  0
   41.0953   43.4191  -13.9838 O   0  0  0  0  0  0  0  0  0  0  0  0
   39.6972   42.9560  -10.1082 C   0  0  2  0  0  0  0  0  0  0  0  0
   39.0590   42.6548   -8.8176 N   0  0  0  0  0  0  0  0  0  0  0  0
   40.8721   39.7581  -12.5155 C   0  0  1  0  0  0  0  0  0  0  0  0
   37.8229   36.9193  -13.3917 C   0  0  1  0  0  0  0  0  0  0  0  0
   42.7256   43.2315  -15.7601 C   0  0  2  0  0  0  0  0  0  0  0  0
   43.6981   43.9522  -14.9260 N   0  0  0  0  0  0  0  0  0  0  0  0
   38.6599   43.4497  -11.1209 C   0  0  0  0  0  0  0  0  0  0  0  0
   40.3545   39.5021  -13.9317 C   0  0  2  0  0  0  0  0  0  0  0  0
   39.2328   40.3451  -14.2014 O   0  0  0  0  0  0  0  0  0  0  0  0
   36.5845   36.8565  -12.4916 C   0  0  2  0  0  0  0  0  0  0  0  0
   37.0326   36.8064  -11.0931 N   0  0  0  0  0  0  0  0  0  0  0  0
   42.0378   44.2263  -16.6985 C   0  0  1  0  0  0  0  0  0  0  0  0
   43.0080   44.7767  -17.5947 O   0  0  0  0  0  0  0  0  0  0  0  0
   39.4115   43.8899  -12.3817 C   0  0  2  0  0  0  0  0  0  0  0  0
   38.4419   44.3142  -13.4028 N   0  0  0  0  0  0  0  0  0  0  0  0
   39.8627   38.0651  -13.7696 C   0  0  2  0  0  0  0  0  0  0  0  0
   38.6548   38.0226  -12.9921 O   0  0  0  0  0  0  0  0  0  0  0  0
   35.7468   35.6059  -12.7888 C   0  0  1  0  0  0  0  0  0  0  0  0
   35.1034   35.7266  -14.0601 O   0  0  0  0  0  0  0  0  0  0  0  0
   40.9469   43.5144  -17.5005 C   0  0  2  0  0  0  0  0  0  0  0  0
   40.2346   44.4674  -18.2938 O   0  0  0  0  0  0  0  0  0  0  0  0
   40.2975   42.7843  -12.9693 C   0  0  2  0  0  0  0  0  0  0  0  0
   41.0070   37.4697  -12.9645 C   0  0  2  0  0  0  0  0  0  0  0  0
   41.5682   38.5437  -12.1790 O   0  0  0  0  0  0  0  0  0  0  0  0
   36.6189   34.3493  -12.7967 C   0  0  2  0  0  0  0  0  0  0  0  0
   37.0861   34.1027  -11.4674 O   0  0  0  0  0  0  0  0  0  0  0  0
   39.9802   42.8164  -16.5426 C   0  0  2  0  0  0  0  0  0  0  0  0
   40.6932   41.8778  -15.7132 O   0  0  0  0  0  0  0  0  0  0  0  0
   41.1903   42.0856  -11.9459 C   0  0  2  0  0  0  0  0  0  0  0  0
   41.7482   40.8987  -12.5331 O   0  0  0  0  0  0  0  0  0  0  0  0
   42.0499   36.8827  -13.9180 C   0  0  0  0  0  0  0  0  0  0  0  0
   42.6744   37.9465  -14.6400 O   0  0  0  0  0  0  0  0  0  0  0  0
   37.7995   34.5686  -13.7464 C   0  0  1  0  0  0  0  0  0  0  0  0
   38.5614   35.6930  -13.2725 O   0  0  0  0  0  0  0  0  0  0  0  0
   38.9383   42.0806  -17.3889 C   0  0  0  0  0  0  0  0  0  0  0  0
   39.5905   41.0471  -18.2059 O   0  0  0  0  0  0  0  0  0  0  0  0
   40.3981   41.7230  -10.6842 C   0  0  1  0  0  0  0  0  0  0  0  0
   41.2704   41.1521   -9.7064 O   0  0  0  0  0  0  0  0  0  0  0  0
   38.7123   33.3444  -13.8276 C   0  0  0  0  0  0  0  0  0  0  0  0
   39.6588   33.5196  -14.9380 N   0  0  0  0  0  0  0  0  0  0  0  0
  1  2  1  1  0  0  0
  1  7  1  0  0  0  0
  1 30  1  0  0  0  0
  3  4  1  1  0  0  0
  3  9  1  0  0  0  0
  3 39  1  0  0  0  0
  5 10  1  0  0  0  0
  5 26  1  0  0  0  0
  5 32  1  6  0  0  0
  6 12  1  0  0  0  0
  6 36  1  0  0  0  0
  6 19  1  1  0  0  0
  7  8  1  1  0  0  0
  7 14  1  0  0  0  0
  9 16  1  0  0  0  0
 10 11  1  1  0  0  0
 10 18  1  0  0  0  0
 12 13  1  1  0  0  0
 12 20  1  0  0  0  0
 14 15  1  6  0  0  0
 14 22  1  0  0  0  0
 16 17  1  6  0  0  0
 16 24  1  0  0  0  0
 18 19  1  1  0  0  0
 18 25  1  0  0  0  0
 20 21  1  6  0  0  0
 20 27  1  0  0  0  0
 22 23  1  1  0  0  0
 22 29  1  0  0  0  0
 24  2  1  6  0  0  0
 24 31  1  0  0  0  0
 25 26  1  0  0  0  0
 25 33  1  6  0  0  0
 27 28  1  1  0  0  0
 27 35  1  0  0  0  0
 29 30  1  0  0  0  0
 29 37  1  6  0  0  0
 31 32  1  6  0  0  0
 31 39  1  0  0  0  0
 33 34  1  0  0  0  0
 35 36  1  0  0  0  0
 35 41  1  1  0  0  0
 37 38  1  0  0  0  0
 39 40  1  1  0  0  0
 41 42  1  0  0  0  0
M  END
>  <CHROM.1>
-169.70226835,106.88057912,176.80200731,149.37899271,-163.41861845,67.63114896
62.60936475,-81.83558634,168.98107316,39.81835726,39.93782892,-13.74524417
-0.21863831,-1.18223086,-2.07464980

>  <Name>
3c44_lig

>  <RI>
0

>  <Rbt.Current_Directory>
/home/itssahil/PROJECTS/Mol_Feturizer/New_Systems/rnas/3c44

>  <Rbt.Executable>
rbdock ($Id: //depot/dev/client3/rdock/2013.1/src/exe/rbdock.cxx#4 $)

>  <Rbt.Library>
libRbt.so (2013.1, Build901 2013/11/27)

>  <Rbt.Parameter_File>
/export/apps/rDock/src/rDock_2013.1_src/data/scripts/dock_solv.prm

>  <Rbt.Receptor>
prm/pocket_docking_6.prm

>  <SCORE>
-11.7098

>  <SCORE.INTER>
-12.5234

>  <SCORE.INTER.CONST>
1

>  <SCORE.INTER.POLAR>
-0.971321

>  <SCORE.INTER.ROT>
9

>  <SCORE.INTER.SOLV>
15.139

>  <SCORE.INTER.VDW>
-19.7576

>  <SCORE.INTER.norm>
-0.298177

>  <SCORE.INTRA>
0.813616

>  <SCORE.INTRA.DIHEDRAL>
-0.185552

>  <SCORE.INTRA.DIHEDRAL.0>
14.8538

>  <SCORE.INTRA.POLAR>
0

>  <SCORE.INTRA.POLAR.0>
0

>  <SCORE.INTRA.REPUL>
0

>  <SCORE.INTRA.REPUL.0>
0

>  <SCORE.INTRA.SOLV>
-2.71322

>  <SCORE.INTRA.SOLV.lig_0>
-100.951

>  <SCORE.INTRA.VDW>
2.263

>  <SCORE.INTRA.VDW.0>
-5.71388

>  <SCORE.INTRA.norm>
0.0193718

>  <SCORE.RESTR>
0

>  <SCORE.RESTR.CAVITY>
0

>  <SCORE.RESTR.norm>
0

>  <SCORE.SYSTEM>
0

>  <SCORE.SYSTEM.CONST>
0

>  <SCORE.SYSTEM.DIHEDRAL>
0

>  <SCORE.SYSTEM.SOLV>
0

>  <SCORE.SYSTEM.norm>
0

>  <SCORE.heavy>
42

>  <SCORE.norm>
-0.278805

>  <RMSD>
9.386

$$$$
3c44_lig
 OpenBabel11021811463D
libRbt.so/2013.1/901 2013/11/27
 42 45  0  0  0  0  0  0  0  0999 V2000
   37.6899   42.4705  -12.4043 C   0  0  2  0  0  0  0  0  0  0  0  0
   37.8505   43.8641  -12.7103 O   0  0  0  0  0  0  0  0  0  0  0  0
   40.6839   45.8876  -14.9614 C   0  0  2  0  0  0  0  0  0  0  0  0
   41.8315   46.5342  -15.6161 N   0  0  0  0  0  0  0  0  0  0  0  0
   38.7378   41.5338  -15.1974 C   0  0  1  0  0  0  0  0  0  0  0  0
   36.2153   39.6350  -17.8817 C   0  0  1  0  0  0  0  0  0  0  0  0
   36.2627   42.2293  -11.9014 C   0  0  2  0  0  0  0  0  0  0  0  0
   35.2750   42.7294  -12.8685 N   0  0  0  0  0  0  0  0  0  0  0  0
   40.5824   46.3232  -13.4967 C   0  0  0  0  0  0  0  0  0  0  0  0
   39.2785   41.3383  -16.6146 C   0  0  2  0  0  0  0  0  0  0  0  0
   39.0056   42.4967  -17.4054 O   0  0  0  0  0  0  0  0  0  0  0  0
   34.9290   40.2450  -18.4483 C   0  0  2  0  0  0  0  0  0  0  0  0
   34.2849   41.0316  -17.3873 N   0  0  0  0  0  0  0  0  0  0  0  0
   36.0266   42.9079  -10.5498 C   0  0  1  0  0  0  0  0  0  0  0  0
   34.7422   42.5254  -10.0485 O   0  0  0  0  0  0  0  0  0  0  0  0
   39.2859   45.7396  -12.9252 C   0  0  2  0  0  0  0  0  0  0  0  0
   39.1834   46.0861  -11.4996 N   0  0  0  0  0  0  0  0  0  0  0  0
   38.3729   40.1999  -17.0803 C   0  0  2  0  0  0  0  0  0  0  0  0
   37.0393   40.6752  -17.3266 O   0  0  0  0  0  0  0  0  0  0  0  0
   33.9573   39.1532  -18.9152 C   0  0  1  0  0  0  0  0  0  0  0  0
   34.4519   38.5167  -20.0964 O   0  0  0  0  0  0  0  0  0  0  0  0
   37.1102   42.4808   -9.5581 C   0  0  2  0  0  0  0  0  0  0  0  0
   36.9505   43.2002   -8.3326 O   0  0  0  0  0  0  0  0  0  0  0  0
   39.1976   44.2153  -13.0719 C   0  0  2  0  0  0  0  0  0  0  0  0
   38.3778   39.3176  -15.8419 C   0  0  2  0  0  0  0  0  0  0  0  0
   38.5644   40.1913  -14.7073 O   0  0  0  0  0  0  0  0  0  0  0  0
   33.7604   38.0924  -17.8311 C   0  0  2  0  0  0  0  0  0  0  0  0
   33.0621   38.6809  -16.7301 O   0  0  0  0  0  0  0  0  0  0  0  0
   38.4899   42.7725  -10.1504 C   0  0  2  0  0  0  0  0  0  0  0  0
   38.6492   42.0798  -11.4042 O   0  0  0  0  0  0  0  0  0  0  0  0
   39.5278   43.6996  -14.4710 C   0  0  2  0  0  0  0  0  0  0  0  0
   39.6988   42.2737  -14.4243 O   0  0  0  0  0  0  0  0  0  0  0  0
   39.5159   38.3000  -15.9453 C   0  0  0  0  0  0  0  0  0  0  0  0
   39.4724   37.4331  -14.8097 O   0  0  0  0  0  0  0  0  0  0  0  0
   35.1311   37.5790  -17.3820 C   0  0  1  0  0  0  0  0  0  0  0  0
   35.8814   38.6875  -16.8550 O   0  0  0  0  0  0  0  0  0  0  0  0
   39.5383   42.2858   -9.1467 C   0  0  0  0  0  0  0  0  0  0  0  0
   40.8800   42.3598   -9.7429 O   0  0  0  0  0  0  0  0  0  0  0  0
   40.7998   44.3621  -15.0134 C   0  0  1  0  0  0  0  0  0  0  0  0
   41.0403   43.9331  -16.3555 O   0  0  0  0  0  0  0  0  0  0  0  0
   35.0202   36.4949  -16.3093 C   0  0  0  0  0  0  0  0  0  0  0  0
   34.3427   35.3206  -16.8764 N   0  0  0  0  0  0  0  0  0  0  0  0
  1  2  1  1  0  0  0
  1  7  1  0  0  0  0
  1 30  1  0  0  0  0
  3  4  1  1  0  0  0
  3  9  1  0  0  0  0
  3 39  1  0  0  0  0
  5 10  1  0  0  0  0
  5 26  1  0  0  0  0
  5 32  1  1  0  0  0
  6 12  1  0  0  0  0
  6 36  1  0  0  0  0
  6 19  1  1  0  0  0
  7  8  1  6  0  0  0
  7 14  1  0  0  0  0
  9 16  1  0  0  0  0
 10 11  1  6  0  0  0
 10 18  1  0  0  0  0
 12 13  1  1  0  0  0
 12 20  1  0  0  0  0
 14 15  1  1  0  0  0
 14 22  1  0  0  0  0
 16 17  1  1  0  0  0
 16 24  1  0  0  0  0
 18 19  1  1  0  0  0
 18 25  1  0  0  0  0
 20 21  1  6  0  0  0
 20 27  1  0  0  0  0
 22 23  1  1  0  0  0
 22 29  1  0  0  0  0
 24  2  1  6  0  0  0
 24 31  1  0  0  0  0
 25 26  1  0  0  0  0
 25 33  1  6  0  0  0
 27 28  1  1  0  0  0
 27 35  1  0  0  0  0
 29 30  1  0  0  0  0
 29 37  1  1  0  0  0
 31 32  1  1  0  0  0
 31 39  1  0  0  0  0
 33 34  1  0  0  0  0
 35 36  1  0  0  0  0
 35 41  1  1  0  0  0
 37 38  1  0  0  0  0
 39 40  1  6  0  0  0
 41 42  1  0  0  0  0
M  END
>  <CHROM.1>
174.47249466,90.22488807,-166.14720006,174.70641031,-162.49743030,-177.16598163
171.78107495,116.60283448,64.03563231,37.63914231,41.54500554,-14.51562720
0.93018066,0.76071196,1.27576665

>  <Name>
3c44_lig

>  <RI>
0

>  <Rbt.Current_Directory>
/home/itssahil/PROJECTS/Mol_Feturizer/New_Systems/rnas/3c44

>  <Rbt.Executable>
rbdock ($Id: //depot/dev/client3/rdock/2013.1/src/exe/rbdock.cxx#4 $)

>  <Rbt.Library>
libRbt.so (2013.1, Build901 2013/11/27)

>  <Rbt.Parameter_File>
/export/apps/rDock/src/rDock_2013.1_src/data/scripts/dock_solv.prm

>  <Rbt.Receptor>
prm/pocket_docking_6.prm

>  <SCORE>
-12.149

>  <SCORE.INTER>
-11.0506

>  <SCORE.INTER.CONST>
1

>  <SCORE.INTER.POLAR>
-1.43733

>  <SCORE.INTER.ROT>
9

>  <SCORE.INTER.SOLV>
15.2451

>  <SCORE.INTER.VDW>
-17.2577

>  <SCORE.INTER.norm>
-0.263111

>  <SCORE.INTRA>
-1.09833

>  <SCORE.INTRA.DIHEDRAL>
-0.79411

>  <SCORE.INTRA.DIHEDRAL.0>
14.8538

>  <SCORE.INTRA.POLAR>
0

>  <SCORE.INTRA.POLAR.0>
0

>  <SCORE.INTRA.REPUL>
0

>  <SCORE.INTRA.REPUL.0>
0

>  <SCORE.INTRA.SOLV>
-4.06916

>  <SCORE.INTRA.SOLV.lig_0>
-100.951

>  <SCORE.INTRA.VDW>
1.3333

>  <SCORE.INTRA.VDW.0>
-5.71388

>  <SCORE.INTRA.norm>
-0.0261508

>  <SCORE.RESTR>
0

>  <SCORE.RESTR.CAVITY>
0

>  <SCORE.RESTR.norm>
0

>  <SCORE.SYSTEM>
0

>  <SCORE.SYSTEM.CONST>
0

>  <SCORE.SYSTEM.DIHEDRAL>
0

>  <SCORE.SYSTEM.SOLV>
0

>  <SCORE.SYSTEM.norm>
0

>  <SCORE.heavy>
42

>  <SCORE.norm>
-0.289261

>  <RMSD>
9.405

$$$$
3c44_lig
 OpenBabel11021811463D
libRbt.so/2013.1/901 2013/11/27
 42 45  0  0  0  0  0  0  0  0999 V2000
   37.2002   38.3981  -13.2951 C   0  0  2  0  0  0  0  0  0  0  0  0
   35.9903   37.6566  -13.5147 O   0  0  0  0  0  0  0  0  0  0  0  0
   38.3228   34.7185  -15.2799 C   0  0  2  0  0  0  0  0  0  0  0  0
   38.9653   33.5743  -15.9447 N   0  0  0  0  0  0  0  0  0  0  0  0
   34.7148   36.8544  -16.5923 C   0  0  1  0  0  0  0  0  0  0  0  0
   30.6128   35.9340  -17.0411 C   0  0  1  0  0  0  0  0  0  0  0  0
   36.9867   39.3716  -12.1312 C   0  0  2  0  0  0  0  0  0  0  0  0
   36.5150   38.6612  -10.9337 N   0  0  0  0  0  0  0  0  0  0  0  0
   37.4478   34.2445  -14.1159 C   0  0  0  0  0  0  0  0  0  0  0  0
   33.8081   37.7511  -17.4366 C   0  0  2  0  0  0  0  0  0  0  0  0
   33.2477   38.7834  -16.6229 O   0  0  0  0  0  0  0  0  0  0  0  0
   29.7363   35.7143  -15.8036 C   0  0  2  0  0  0  0  0  0  0  0  0
   30.4819   34.8785  -14.8525 N   0  0  0  0  0  0  0  0  0  0  0  0
   35.9762   40.4621  -12.4957 C   0  0  1  0  0  0  0  0  0  0  0  0
   35.9292   41.4314  -11.4443 O   0  0  0  0  0  0  0  0  0  0  0  0
   36.9393   35.4877  -13.3783 C   0  0  2  0  0  0  0  0  0  0  0  0
   36.0434   35.0737  -12.2879 N   0  0  0  0  0  0  0  0  0  0  0  0
   32.7096   36.7492  -17.7864 C   0  0  2  0  0  0  0  0  0  0  0  0
   31.8849   36.4741  -16.6422 O   0  0  0  0  0  0  0  0  0  0  0  0
   28.4284   35.0013  -16.1709 C   0  0  1  0  0  0  0  0  0  0  0  0
   27.5723   35.8774  -16.9088 O   0  0  0  0  0  0  0  0  0  0  0  0
   36.3950   41.1427  -13.8002 C   0  0  2  0  0  0  0  0  0  0  0  0
   35.3927   42.0834  -14.1945 O   0  0  0  0  0  0  0  0  0  0  0  0
   36.1881   36.4632  -14.2929 C   0  0  2  0  0  0  0  0  0  0  0  0
   33.5471   35.5236  -18.1161 C   0  0  2  0  0  0  0  0  0  0  0  0
   34.7515   35.6155  -17.3248 O   0  0  0  0  0  0  0  0  0  0  0  0
   28.7003   33.7545  -17.0144 C   0  0  2  0  0  0  0  0  0  0  0  0
   29.3671   32.7837  -16.2025 O   0  0  0  0  0  0  0  0  0  0  0  0
   36.5708   40.0885  -14.8942 C   0  0  2  0  0  0  0  0  0  0  0  0
   37.5543   39.1145  -14.4927 O   0  0  0  0  0  0  0  0  0  0  0  0
   36.9159   36.7885  -15.5956 C   0  0  2  0  0  0  0  0  0  0  0  0
   36.0142   37.4622  -16.4889 O   0  0  0  0  0  0  0  0  0  0  0  0
   33.8712   35.5148  -19.6116 C   0  0  0  0  0  0  0  0  0  0  0  0
   34.5660   34.3076  -19.9322 O   0  0  0  0  0  0  0  0  0  0  0  0
   29.5742   34.1430  -18.2098 C   0  0  1  0  0  0  0  0  0  0  0  0
   30.8126   34.6798  -17.7123 O   0  0  0  0  0  0  0  0  0  0  0  0
   37.0350   40.8087  -16.1627 C   0  0  0  0  0  0  0  0  0  0  0  0
   38.3698   41.3881  -15.9541 O   0  0  0  0  0  0  0  0  0  0  0  0
   37.4527   35.5135  -16.2567 C   0  0  1  0  0  0  0  0  0  0  0  0
   38.2054   35.8481  -17.4249 O   0  0  0  0  0  0  0  0  0  0  0  0
   29.8752   32.9506  -19.1186 C   0  0  0  0  0  0  0  0  0  0  0  0
   30.6520   31.9542  -18.3680 N   0  0  0  0  0  0  0  0  0  0  0  0
  1  2  1  6  0  0  0
  1  7  1  0  0  0  0
  1 30  1  0  0  0  0
  3  4  1  6  0  0  0
  3  9  1  0  0  0  0
  3 39  1  0  0  0  0
  5 10  1  0  0  0  0
  5 26  1  0  0  0  0
  5 32  1  6  0  0  0
  6 12  1  0  0  0  0
  6 36  1  0  0  0  0
  6 19  1  1  0  0  0
  7  8  1  1  0  0  0
  7 14  1  0  0  0  0
  9 16  1  0  0  0  0
 10 11  1  1  0  0  0
 10 18  1  0  0  0  0
 12 13  1  1  0  0  0
 12 20  1  0  0  0  0
 14 15  1  1  0  0  0
 14 22  1  0  0  0  0
 16 17  1  1  0  0  0
 16 24  1  0  0  0  0
 18 19  1  1  0  0  0
 18 25  1  0  0  0  0
 20 21  1  6  0  0  0
 20 27  1  0  0  0  0
 22 23  1  6  0  0  0
 22 29  1  0  0  0  0
 24  2  1  1  0  0  0
 24 31  1  0  0  0  0
 25 26  1  0  0  0  0
 25 33  1  6  0  0  0
 27 28  1  1  0  0  0
 27 35  1  0  0  0  0
 29 30  1  0  0  0  0
 29 37  1  6  0  0  0
 31 32  1  6  0  0  0
 31 39  1  0  0  0  0
 33 34  1  0  0  0  0
 35 36  1  0  0  0  0
 35 41  1  6  0  0  0
 37 38  1  0  0  0  0
 39 40  1  6  0  0  0
 41 42  1  0  0  0  0
M  END
>  <CHROM.1>
-162.52037070,173.43630988,-177.37325319,159.70715261,71.31244699,-175.42186815
65.37486618,-46.07012086,-63.22071611,34.31672870,36.71927383,-15.77891996
0.71343357,-0.07556899,0.55652334

>  <Name>
3c44_lig

>  <RI>
0

>  <Rbt.Current_Directory>
/home/itssahil/PROJECTS/Mol_Feturizer/New_Systems/rnas/3c44

>  <Rbt.Executable>
rbdock ($Id: //depot/dev/client3/rdock/2013.1/src/exe/rbdock.cxx#4 $)

>  <Rbt.Library>
libRbt.so (2013.1, Build901 2013/11/27)

>  <Rbt.Parameter_File>
/export/apps/rDock/src/rDock_2013.1_src/data/scripts/dock_solv.prm

>  <Rbt.Receptor>
prm/pocket_docking_6.prm

>  <SCORE>
-7.23032

>  <SCORE.INTER>
-5.69494

>  <SCORE.INTER.CONST>
1

>  <SCORE.INTER.POLAR>
-2.10808

>  <SCORE.INTER.ROT>
9

>  <SCORE.INTER.SOLV>
15.4922

>  <SCORE.INTER.VDW>
-11.5338

>  <SCORE.INTER.norm>
-0.135594

>  <SCORE.INTRA>
-1.53538

>  <SCORE.INTRA.DIHEDRAL>
-9.28945

>  <SCORE.INTRA.DIHEDRAL.0>
14.8538

>  <SCORE.INTRA.POLAR>
0

>  <SCORE.INTRA.POLAR.0>
0

>  <SCORE.INTRA.REPUL>
0

>  <SCORE.INTRA.REPUL.0>
0

>  <SCORE.INTRA.SOLV>
-1.98824

>  <SCORE.INTRA.SOLV.lig_0>
-100.951

>  <SCORE.INTRA.VDW>
4.10346

>  <SCORE.INTRA.VDW.0>
-5.71388

>  <SCORE.INTRA.norm>
-0.0365568

>  <SCORE.RESTR>
0

>  <SCORE.RESTR.CAVITY>
0

>  <SCORE.RESTR.norm>
0

>  <SCORE.SYSTEM>
0

>  <SCORE.SYSTEM.CONST>
0

>  <SCORE.SYSTEM.DIHEDRAL>
0

>  <SCORE.SYSTEM.SOLV>
0

>  <SCORE.SYSTEM.norm>
0

>  <SCORE.heavy>
42

>  <SCORE.norm>
-0.17215

>  <RMSD>
9.419

$$$$
3c44_lig
 OpenBabel11021811463D
libRbt.so/2013.1/901 2013/11/27
 42 45  0  0  0  0  0  0  0  0999 V2000
   38.4330   42.6534   -9.9924 C   0  0  2  0  0  0  0  0  0  0  0  0
   38.3173   44.0372  -10.3579 O   0  0  0  0  0  0  0  0  0  0  0  0
   39.7197   45.9487  -13.7592 C   0  0  2  0  0  0  0  0  0  0  0  0
   40.4128   46.6002  -14.8813 N   0  0  0  0  0  0  0  0  0  0  0  0
   39.1524   41.5014  -13.4511 C   0  0  1  0  0  0  0  0  0  0  0  0
   38.2214   38.5685  -16.2637 C   0  0  1  0  0  0  0  0  0  0  0  0
   37.2222   42.2573   -9.1410 C   0  0  2  0  0  0  0  0  0  0  0  0
   35.9665   42.5711   -9.8379 N   0  0  0  0  0  0  0  0  0  0  0  0
   40.0835   46.6250  -12.4343 C   0  0  0  0  0  0  0  0  0  0  0  0
   39.8208   40.1353  -13.2894 C   0  0  2  0  0  0  0  0  0  0  0  0
   41.0873   40.1300  -13.9509 O   0  0  0  0  0  0  0  0  0  0  0  0
   38.5663   38.7097  -17.7500 C   0  0  2  0  0  0  0  0  0  0  0  0
   38.3623   40.1117  -18.1399 N   0  0  0  0  0  0  0  0  0  0  0  0
   37.2350   42.9729   -7.7879 C   0  0  1  0  0  0  0  0  0  0  0  0
   36.1804   42.4552   -6.9711 O   0  0  0  0  0  0  0  0  0  0  0  0
   39.2128   46.0021  -11.3380 C   0  0  2  0  0  0  0  0  0  0  0  0
   39.5775   46.5844  -10.0376 N   0  0  0  0  0  0  0  0  0  0  0  0
   38.8442   39.2752  -14.0890 C   0  0  2  0  0  0  0  0  0  0  0  0
   38.9848   39.5176  -15.4985 O   0  0  0  0  0  0  0  0  0  0  0  0
   37.6652   37.8185  -18.6147 C   0  0  1  0  0  0  0  0  0  0  0  0
   37.9997   36.4407  -18.4290 O   0  0  0  0  0  0  0  0  0  0  0  0
   38.5786   42.7451   -7.0929 C   0  0  2  0  0  0  0  0  0  0  0  0
   38.6279   43.5040   -5.8819 O   0  0  0  0  0  0  0  0  0  0  0  0
   39.3527   44.4770  -11.2542 C   0  0  2  0  0  0  0  0  0  0  0  0
   37.5177   39.8400  -13.6058 C   0  0  2  0  0  0  0  0  0  0  0  0
   37.7523   41.2234  -13.2644 O   0  0  0  0  0  0  0  0  0  0  0  0
   36.1909   38.0185  -18.2595 C   0  0  2  0  0  0  0  0  0  0  0  0
   35.7955   39.3358  -18.6523 O   0  0  0  0  0  0  0  0  0  0  0  0
   39.7147   43.1801   -8.0199 C   0  0  2  0  0  0  0  0  0  0  0  0
   39.6544   42.4460   -9.2587 O   0  0  0  0  0  0  0  0  0  0  0  0
   39.2361   43.7616  -12.5985 C   0  0  2  0  0  0  0  0  0  0  0  0
   39.6656   42.3984  -12.4508 O   0  0  0  0  0  0  0  0  0  0  0  0
   37.0391   39.0467  -12.3880 C   0  0  0  0  0  0  0  0  0  0  0  0
   35.7061   39.4475  -12.0634 O   0  0  0  0  0  0  0  0  0  0  0  0
   36.0131   37.8345  -16.7501 C   0  0  1  0  0  0  0  0  0  0  0  0
   36.8191   38.8158  -16.0744 O   0  0  0  0  0  0  0  0  0  0  0  0
   41.0358   42.8894   -7.3031 C   0  0  0  0  0  0  0  0  0  0  0  0
   41.1116   41.4664   -6.9423 O   0  0  0  0  0  0  0  0  0  0  0  0
   40.0808   44.4638  -13.6683 C   0  0  1  0  0  0  0  0  0  0  0  0
   39.8875   43.8326  -14.9360 O   0  0  0  0  0  0  0  0  0  0  0  0
   34.5563   37.9981  -16.3146 C   0  0  0  0  0  0  0  0  0  0  0  0
   34.4459   37.7114  -14.8775 N   0  0  0  0  0  0  0  0  0  0  0  0
  1  2  1  1  0  0  0
  1  7  1  0  0  0  0
  1 30  1  0  0  0  0
  3  4  1  6  0  0  0
  3  9  1  0  0  0  0
  3 39  1  0  0  0  0
  5 10  1  0  0  0  0
  5 26  1  0  0  0  0
  5 32  1  1  0  0  0
  6 12  1  0  0  0  0
  6 36  1  0  0  0  0
  6 19  1  1  0  0  0
  7  8  1  6  0  0  0
  7 14  1  0  0  0  0
  9 16  1  0  0  0  0
 10 11  1  6  0  0  0
 10 18  1  0  0  0  0
 12 13  1  6  0  0  0
 12 20  1  0  0  0  0
 14 15  1  1  0  0  0
 14 22  1  0  0  0  0
 16 17  1  1  0  0  0
 16 24  1  0  0  0  0
 18 19  1  6  0  0  0
 18 25  1  0  0  0  0
 20 21  1  1  0  0  0
 20 27  1  0  0  0  0
 22 23  1  1  0  0  0
 22 29  1  0  0  0  0
 24  2  1  1  0  0  0
 24 31  1  0  0  0  0
 25 26  1  0  0  0  0
 25 33  1  1  0  0  0
 27 28  1  1  0  0  0
 27 35  1  0  0  0  0
 29 30  1  0  0  0  0
 29 37  1  1  0  0  0
 31 32  1  1  0  0  0
 31 39  1  0  0  0  0
 33 34  1  0  0  0  0
 35 36  1  0  0  0  0
 35 41  1  6  0  0  0
 37 38  1  0  0  0  0
 39 40  1  6  0  0  0
 41 42  1  0  0  0  0
M  END
>  <CHROM.1>
-175.09564919,172.79331070,-171.01966026,171.05556187,-170.53967519,-171.38668967
56.81434000,157.65817734,175.85732619,38.32875800,41.53256298,-12.78084043
1.17919539,1.03052019,1.34135694

>  <Name>
3c44_lig

>  <RI>
0

>  <Rbt.Current_Directory>
/home/itssahil/PROJECTS/Mol_Feturizer/New_Systems/rnas/3c44

>  <Rbt.Executable>
rbdock ($Id: //depot/dev/client3/rdock/2013.1/src/exe/rbdock.cxx#4 $)

>  <Rbt.Library>
libRbt.so (2013.1, Build901 2013/11/27)

>  <Rbt.Parameter_File>
/export/apps/rDock/src/rDock_2013.1_src/data/scripts/dock_solv.prm

>  <Rbt.Receptor>
prm/pocket_docking_7.prm

>  <SCORE>
-14.5387

>  <SCORE.INTER>
-9.62676

>  <SCORE.INTER.CONST>
1

>  <SCORE.INTER.POLAR>
-1.76621

>  <SCORE.INTER.ROT>
9

>  <SCORE.INTER.SOLV>
10.9601

>  <SCORE.INTER.VDW>
-13.7839

>  <SCORE.INTER.norm>
-0.229209

>  <SCORE.INTRA>
-4.94161

>  <SCORE.INTRA.DIHEDRAL>
-10.269

>  <SCORE.INTRA.DIHEDRAL.0>
14.8538

>  <SCORE.INTRA.POLAR>
0

>  <SCORE.INTRA.POLAR.0>
0

>  <SCORE.INTRA.REPUL>
0

>  <SCORE.INTRA.REPUL.0>
0

>  <SCORE.INTRA.SOLV>
-2.99218

>  <SCORE.INTRA.SOLV.lig_0>
-100.951

>  <SCORE.INTRA.VDW>
1.68896

>  <SCORE.INTRA.VDW.0>
-5.71388

>  <SCORE.INTRA.norm>
-0.117657

>  <SCORE.RESTR>
0.0297192

>  <SCORE.RESTR.CAVITY>
0.0297192

>  <SCORE.RESTR.norm>
0.0007076

>  <SCORE.SYSTEM>
0

>  <SCORE.SYSTEM.CONST>
0

>  <SCORE.SYSTEM.DIHEDRAL>
0

>  <SCORE.SYSTEM.SOLV>
0

>  <SCORE.SYSTEM.norm>
0

>  <SCORE.heavy>
42

>  <SCORE.norm>
-0.346158

>  <RMSD>
9.425

$$$$
3c44_lig
 OpenBabel11021811463D
libRbt.so/2013.1/901 2013/11/27
 42 45  0  0  0  0  0  0  0  0999 V2000
   40.3879   38.9052  -14.1434 C   0  0  2  0  0  0  0  0  0  0  0  0
   41.2593   39.3451  -13.0903 O   0  0  0  0  0  0  0  0  0  0  0  0
   40.5982   39.6317   -9.0074 C   0  0  2  0  0  0  0  0  0  0  0  0
   40.2236   39.8884   -7.6083 N   0  0  0  0  0  0  0  0  0  0  0  0
   38.5009   36.8206  -11.9964 C   0  0  1  0  0  0  0  0  0  0  0  0
   36.9357   32.8943  -12.3241 C   0  0  1  0  0  0  0  0  0  0  0  0
   41.2342   38.3648  -15.3009 C   0  0  2  0  0  0  0  0  0  0  0  0
   42.1545   37.3183  -14.8330 N   0  0  0  0  0  0  0  0  0  0  0  0
   41.0807   40.9192   -9.6818 C   0  0  0  0  0  0  0  0  0  0  0  0
   37.3699   36.4968  -12.9737 C   0  0  2  0  0  0  0  0  0  0  0  0
   36.1051   36.6755  -12.3333 O   0  0  0  0  0  0  0  0  0  0  0  0
   36.0076   32.2980  -11.2607 C   0  0  2  0  0  0  0  0  0  0  0  0
   36.6313   32.4897   -9.9441 N   0  0  0  0  0  0  0  0  0  0  0  0
   42.0433   39.4804  -15.9671 C   0  0  1  0  0  0  0  0  0  0  0  0
   42.6900   38.9615  -17.1333 O   0  0  0  0  0  0  0  0  0  0  0  0
   41.5979   40.5500  -11.0761 C   0  0  2  0  0  0  0  0  0  0  0  0
   42.0145   41.7723  -11.7799 N   0  0  0  0  0  0  0  0  0  0  0  0
   37.6171   35.0020  -13.1667 C   0  0  2  0  0  0  0  0  0  0  0  0
   37.2283   34.2640  -11.9965 O   0  0  0  0  0  0  0  0  0  0  0  0
   35.7916   30.7969  -11.4931 C   0  0  1  0  0  0  0  0  0  0  0  0
   34.9830   30.5826  -12.6529 O   0  0  0  0  0  0  0  0  0  0  0  0
   41.1141   40.6283  -16.3660 C   0  0  2  0  0  0  0  0  0  0  0  0
   41.8868   41.7130  -16.8870 O   0  0  0  0  0  0  0  0  0  0  0  0
   40.5542   39.8186  -11.9295 C   0  0  2  0  0  0  0  0  0  0  0  0
   39.1319   34.9863  -13.2978 C   0  0  2  0  0  0  0  0  0  0  0  0
   39.6296   36.1009  -12.5262 O   0  0  0  0  0  0  0  0  0  0  0  0
   37.1254   30.0726  -11.6833 C   0  0  2  0  0  0  0  0  0  0  0  0
   37.8444   30.0962  -10.4469 O   0  0  0  0  0  0  0  0  0  0  0  0
   40.3265   41.0983  -15.1421 C   0  0  2  0  0  0  0  0  0  0  0  0
   39.5702   40.0040  -14.5873 O   0  0  0  0  0  0  0  0  0  0  0  0
   39.8603   38.6604  -11.2156 C   0  0  2  0  0  0  0  0  0  0  0  0
   38.7208   38.2420  -11.9845 O   0  0  0  0  0  0  0  0  0  0  0  0
   39.5175   35.1227  -14.7724 C   0  0  0  0  0  0  0  0  0  0  0  0
   39.0177   36.3646  -15.2732 O   0  0  0  0  0  0  0  0  0  0  0  0
   37.9246   30.7810  -12.7803 C   0  0  1  0  0  0  0  0  0  0  0  0
   38.1571   32.1395  -12.3682 O   0  0  0  0  0  0  0  0  0  0  0  0
   39.3791   42.2107  -15.5988 C   0  0  0  0  0  0  0  0  0  0  0  0
   40.1484   43.4049  -15.9768 O   0  0  0  0  0  0  0  0  0  0  0  0
   39.4186   39.0711   -9.8059 C   0  0  1  0  0  0  0  0  0  0  0  0
   38.8530   37.9492   -9.1245 O   0  0  0  0  0  0  0  0  0  0  0  0
   39.2687   30.1024  -13.0472 C   0  0  0  0  0  0  0  0  0  0  0  0
   39.0393   28.6908  -13.3853 N   0  0  0  0  0  0  0  0  0  0  0  0
  1  2  1  1  0  0  0
  1  7  1  0  0  0  0
  1 30  1  0  0  0  0
  3  4  1  1  0  0  0
  3  9  1  0  0  0  0
  3 39  1  0  0  0  0
  5 10  1  0  0  0  0
  5 26  1  0  0  0  0
  5 32  1  6  0  0  0
  6 12  1  0  0  0  0
  6 36  1  0  0  0  0
  6 19  1  1  0  0  0
  7  8  1  1  0  0  0
  7 14  1  0  0  0  0
  9 16  1  0  0  0  0
 10 11  1  1  0  0  0
 10 18  1  0  0  0  0
 12 13  1  1  0  0  0
 12 20  1  0  0  0  0
 14 15  1  6  0  0  0
 14 22  1  0  0  0  0
 16 17  1  6  0  0  0
 16 24  1  0  0  0  0
 18 19  1  1  0  0  0
 18 25  1  0  0  0  0
 20 21  1  6  0  0  0
 20 27  1  0  0  0  0
 22 23  1  1  0  0  0
 22 29  1  0  0  0  0
 24  2  1  6  0  0  0
 24 31  1  0  0  0  0
 25 26  1  0  0  0  0
 25 33  1  6  0  0  0
 27 28  1  1  0  0  0
 27 35  1  0  0  0  0
 29 30  1  0  0  0  0
 29 37  1  6  0  0  0
 31 32  1  6  0  0  0
 31 39  1  0  0  0  0
 33 34  1  0  0  0  0
 35 36  1  0  0  0  0
 35 41  1  1  0  0  0
 37 38  1  0  0  0  0
 39 40  1  1  0  0  0
 41 42  1  0  0  0  0
M  END
>  <CHROM.1>
-177.46930090,-173.38988574,-156.84710818,156.52155107,-166.50043469,60.70039924
-68.38090951,142.11312172,56.24054869,39.25274753,36.69237408,-12.83625386
-0.34693398,-1.17932642,-2.15553719

>  <Name>
3c44_lig

>  <RI>
0

>  <Rbt.Current_Directory>
/home/itssahil/PROJECTS/Mol_Feturizer/New_Systems/rnas/3c44

>  <Rbt.Executable>
rbdock ($Id: //depot/dev/client3/rdock/2013.1/src/exe/rbdock.cxx#4 $)

>  <Rbt.Library>
libRbt.so (2013.1, Build901 2013/11/27)

>  <Rbt.Parameter_File>
/export/apps/rDock/src/rDock_2013.1_src/data/scripts/dock_solv.prm

>  <Rbt.Receptor>
prm/pocket_docking_7.prm

>  <SCORE>
-16.4166

>  <SCORE.INTER>
-14.8378

>  <SCORE.INTER.CONST>
1

>  <SCORE.INTER.POLAR>
-1.37753

>  <SCORE.INTER.ROT>
9

>  <SCORE.INTER.SOLV>
28.7966

>  <SCORE.INTER.VDW>
-24.499

>  <SCORE.INTER.norm>
-0.353282

>  <SCORE.INTRA>
-1.6539

>  <SCORE.INTRA.DIHEDRAL>
-3.41087

>  <SCORE.INTRA.DIHEDRAL.0>
14.8538

>  <SCORE.INTRA.POLAR>
0

>  <SCORE.INTRA.POLAR.0>
0

>  <SCORE.INTRA.REPUL>
0

>  <SCORE.INTRA.REPUL.0>
0

>  <SCORE.INTRA.SOLV>
-1.49495

>  <SCORE.INTRA.SOLV.lig_0>
-100.951

>  <SCORE.INTRA.VDW>
0.799006

>  <SCORE.INTRA.VDW.0>
-5.71388

>  <SCORE.INTRA.norm>
-0.0393786

>  <SCORE.RESTR>
0.0751973

>  <SCORE.RESTR.CAVITY>
0.0751973

>  <SCORE.RESTR.norm>
0.00179041

>  <SCORE.SYSTEM>
0

>  <SCORE.SYSTEM.CONST>
0

>  <SCORE.SYSTEM.DIHEDRAL>
0

>  <SCORE.SYSTEM.SOLV>
0

>  <SCORE.SYSTEM.norm>
0

>  <SCORE.heavy>
42

>  <SCORE.norm>
-0.39087

>  <RMSD>
9.487

$$$$
3c44_lig
 OpenBabel11021811463D
libRbt.so/2013.1/901 2013/11/27
 42 45  0  0  0  0  0  0  0  0999 V2000
   36.6701   33.8279  -16.1516 C   0  0  2  0  0  0  0  0  0  0  0  0
   37.0865   35.1988  -16.0553 O   0  0  0  0  0  0  0  0  0  0  0  0
   36.1114   37.9929  -13.1516 C   0  0  2  0  0  0  0  0  0  0  0  0
   35.5703   38.9859  -12.2108 N   0  0  0  0  0  0  0  0  0  0  0  0
   35.6579   33.5523  -12.6049 C   0  0  1  0  0  0  0  0  0  0  0  0
   34.5600   30.4948  -10.6506 C   0  0  1  0  0  0  0  0  0  0  0  0
   37.8228   32.9931  -16.7193 C   0  0  2  0  0  0  0  0  0  0  0  0
   39.0439   33.1748  -15.9212 N   0  0  0  0  0  0  0  0  0  0  0  0
   35.9304   38.4646  -14.5973 C   0  0  0  0  0  0  0  0  0  0  0  0
   35.6422   32.0690  -12.9771 C   0  0  2  0  0  0  0  0  0  0  0  0
   34.3010   31.5763  -12.9629 O   0  0  0  0  0  0  0  0  0  0  0  0
   34.2870   29.9707   -9.2369 C   0  0  2  0  0  0  0  0  0  0  0  0
   35.5639   29.5438   -8.6484 N   0  0  0  0  0  0  0  0  0  0  0  0
   38.1167   33.3665  -18.1744 C   0  0  1  0  0  0  0  0  0  0  0  0
   39.0855   32.4584  -18.7074 O   0  0  0  0  0  0  0  0  0  0  0  0
   36.6506   37.4646  -15.5080 C   0  0  2  0  0  0  0  0  0  0  0  0
   36.4468   37.8513  -16.9122 N   0  0  0  0  0  0  0  0  0  0  0  0
   36.3905   31.4947  -11.7758 C   0  0  2  0  0  0  0  0  0  0  0  0
   35.5660   31.5216  -10.5991 O   0  0  0  0  0  0  0  0  0  0  0  0
   33.3292   28.7725   -9.2658 C   0  0  1  0  0  0  0  0  0  0  0  0
   32.0090   29.1970   -9.6146 O   0  0  0  0  0  0  0  0  0  0  0  0
   36.8318   33.2861  -19.0006 C   0  0  2  0  0  0  0  0  0  0  0  0
   37.0875   33.7409  -20.3320 O   0  0  0  0  0  0  0  0  0  0  0  0
   36.1668   36.0218  -15.3166 C   0  0  2  0  0  0  0  0  0  0  0  0
   37.5112   32.5126  -11.6350 C   0  0  2  0  0  0  0  0  0  0  0  0
   36.9960   33.7711  -12.1208 O   0  0  0  0  0  0  0  0  0  0  0  0
   33.7918   27.7235  -10.2784 C   0  0  2  0  0  0  0  0  0  0  0  0
   35.0104   27.1371   -9.8124 O   0  0  0  0  0  0  0  0  0  0  0  0
   35.7534   34.1587  -18.3564 C   0  0  2  0  0  0  0  0  0  0  0  0
   35.5119   33.7312  -17.0014 O   0  0  0  0  0  0  0  0  0  0  0  0
   36.0980   35.5714  -13.8588 C   0  0  2  0  0  0  0  0  0  0  0  0
   35.3701   34.3352  -13.7767 O   0  0  0  0  0  0  0  0  0  0  0  0
   38.7188   32.0585  -12.4578 C   0  0  0  0  0  0  0  0  0  0  0  0
   39.4746   33.2061  -12.8512 O   0  0  0  0  0  0  0  0  0  0  0  0
   34.0086   28.4015  -11.6338 C   0  0  1  0  0  0  0  0  0  0  0  0
   35.0183   29.4144  -11.4790 O   0  0  0  0  0  0  0  0  0  0  0  0
   34.4769   34.0088  -19.1879 C   0  0  0  0  0  0  0  0  0  0  0  0
   33.9533   32.6406  -19.0661 O   0  0  0  0  0  0  0  0  0  0  0  0
   35.4216   36.6363  -12.9874 C   0  0  1  0  0  0  0  0  0  0  0  0
   35.4477   36.2346  -11.6159 O   0  0  0  0  0  0  0  0  0  0  0  0
   34.4538   27.4121  -12.7114 C   0  0  0  0  0  0  0  0  0  0  0  0
   33.3375   26.5120  -13.0326 N   0  0  0  0  0  0  0  0  0  0  0  0
  1  2  1  6  0  0  0
  1  7  1  0  0  0  0
  1 30  1  0  0  0  0
  3  4  1  1  0  0  0
  3  9  1  0  0  0  0
  3 39  1  0  0  0  0
  5 10  1  0  0  0  0
  5 26  1  0  0  0  0
  5 32  1  6  0  0  0
  6 12  1  0  0  0  0
  6 36  1  0  0  0  0
  6 19  1  1  0  0  0
  7  8  1  1  0  0  0
  7 14  1  0  0  0  0
  9 16  1  0  0  0  0
 10 11  1  1  0  0  0
 10 18  1  0  0  0  0
 12 13  1  6  0  0  0
 12 20  1  0  0  0  0
 14 15  1  6  0  0  0
 14 22  1  0  0  0  0
 16 17  1  6  0  0  0
 16 24  1  0  0  0  0
 18 19  1  1  0  0  0
 18 25  1  0  0  0  0
 20 21  1  6  0  0  0
 20 27  1  0  0  0  0
 22 23  1  6  0  0  0
 22 29  1  0  0  0  0
 24  2  1  6  0  0  0
 24 31  1  0  0  0  0
 25 26  1  0  0  0  0
 25 33  1  6  0  0  0
 27 28  1  1  0  0  0
 27 35  1  0  0  0  0
 29 30  1  0  0  0  0
 29 37  1  6  0  0  0
 31 32  1  6  0  0  0
 31 39  1  0  0  0  0
 33 34  1  0  0  0  0
 35 36  1  0  0  0  0
 35 41  1  6  0  0  0
 37 38  1  0  0  0  0
 39 40  1  1  0  0  0
 41 42  1  0  0  0  0
M  END
>  <CHROM.1>
-169.58785664,-143.35581099,146.22547015,74.71815077,-171.23083855,152.83918139
67.04375768,157.22593708,69.22342565,35.86425389,32.79884904,-13.84609117
0.03436234,-1.32558321,-2.32073241

>  <Name>
3c44_lig

>  <RI>
224

>  <Rbt.Current_Directory>
/home/itssahil/PROJECTS/Mol_Feturizer/New_Systems/rnas/3c44

>  <Rbt.Executable>
rbdock ($Id: //depot/dev/client3/rdock/2013.1/src/exe/rbdock.cxx#4 $)

>  <Rbt.Library>
libRbt.so (2013.1, Build901 2013/11/27)

>  <Rbt.Parameter_File>
/export/apps/rDock/src/rDock_2013.1_src/data/scripts/dock_solv.prm

>  <Rbt.Receptor>
prm/pocket_docking_8.prm

>  <SCORE>
-9.7101

>  <SCORE.INTER>
-14.5569

>  <SCORE.INTER.CONST>
1

>  <SCORE.INTER.POLAR>
-1.07547

>  <SCORE.INTER.ROT>
9

>  <SCORE.INTER.SOLV>
19.9299

>  <SCORE.INTER.VDW>
-22.363

>  <SCORE.INTER.norm>
-0.346592

>  <SCORE.INTRA>
4.84676

>  <SCORE.INTRA.DIHEDRAL>
1.46295

>  <SCORE.INTRA.DIHEDRAL.0>
14.8538

>  <SCORE.INTRA.POLAR>
0

>  <SCORE.INTRA.POLAR.0>
0

>  <SCORE.INTRA.REPUL>
0

>  <SCORE.INTRA.REPUL.0>
0

>  <SCORE.INTRA.SOLV>
-2.34274

>  <SCORE.INTRA.SOLV.lig_0>
-100.951

>  <SCORE.INTRA.VDW>
5.28665

>  <SCORE.INTRA.VDW.0>
-5.71388

>  <SCORE.INTRA.norm>
0.115399

>  <SCORE.RESTR>
0

>  <SCORE.RESTR.CAVITY>
0

>  <SCORE.RESTR.norm>
0

>  <SCORE.SYSTEM>
0

>  <SCORE.SYSTEM.CONST>
0

>  <SCORE.SYSTEM.DIHEDRAL>
0

>  <SCORE.SYSTEM.SOLV>
0

>  <SCORE.SYSTEM.norm>
0

>  <SCORE.heavy>
42

>  <SCORE.norm>
-0.231193

>  <RMSD>
9.491

$$$$
3c44_lig
 OpenBabel11021811463D
libRbt.so/2013.1/901 2013/11/27
 42 45  0  0  0  0  0  0  0  0999 V2000
   37.5130   38.1983  -17.8417 C   0  0  2  0  0  0  0  0  0  0  0  0
   38.2407   37.3330  -16.9565 O   0  0  0  0  0  0  0  0  0  0  0  0
   36.6146   35.4459  -13.6422 C   0  0  2  0  0  0  0  0  0  0  0  0
   36.0684   34.9629  -12.3646 N   0  0  0  0  0  0  0  0  0  0  0  0
   34.1317   37.7048  -16.5683 C   0  0  1  0  0  0  0  0  0  0  0  0
   30.2230   37.5249  -18.1482 C   0  0  1  0  0  0  0  0  0  0  0  0
   38.2065   38.2148  -19.2080 C   0  0  2  0  0  0  0  0  0  0  0  0
   38.3666   36.8502  -19.7308 N   0  0  0  0  0  0  0  0  0  0  0  0
   38.0316   35.9940  -13.4505 C   0  0  0  0  0  0  0  0  0  0  0  0
   33.7527   38.5768  -17.7662 C   0  0  2  0  0  0  0  0  0  0  0  0
   33.2733   39.8449  -17.3148 O   0  0  0  0  0  0  0  0  0  0  0  0
   29.0424   37.5373  -17.1716 C   0  0  2  0  0  0  0  0  0  0  0  0
   29.3834   36.6844  -16.0246 N   0  0  0  0  0  0  0  0  0  0  0  0
   39.5812   38.8831  -19.1265 C   0  0  1  0  0  0  0  0  0  0  0  0
   40.1188   39.0174  -20.4457 O   0  0  0  0  0  0  0  0  0  0  0  0
   38.5927   36.3314  -14.8359 C   0  0  2  0  0  0  0  0  0  0  0  0
   39.9326   36.9194  -14.6881 N   0  0  0  0  0  0  0  0  0  0  0  0
   32.5747   37.7700  -18.3089 C   0  0  2  0  0  0  0  0  0  0  0  0
   31.4254   37.9071  -17.4573 O   0  0  0  0  0  0  0  0  0  0  0  0
   27.7702   36.9922  -17.8338 C   0  0  1  0  0  0  0  0  0  0  0  0
   27.2771   37.9184  -18.8053 O   0  0  0  0  0  0  0  0  0  0  0  0
   39.4490   40.2657  -18.4852 C   0  0  2  0  0  0  0  0  0  0  0  0
   40.7468   40.8404  -18.3105 O   0  0  0  0  0  0  0  0  0  0  0  0
   37.7076   37.3077  -15.6208 C   0  0  2  0  0  0  0  0  0  0  0  0
   33.1285   36.3586  -18.1925 C   0  0  2  0  0  0  0  0  0  0  0  0
   34.0506   36.3620  -17.0812 O   0  0  0  0  0  0  0  0  0  0  0  0
   28.0397   35.6537  -18.5232 C   0  0  2  0  0  0  0  0  0  0  0  0
   28.3184   34.6676  -17.5252 O   0  0  0  0  0  0  0  0  0  0  0  0
   38.7561   40.1364  -17.1279 C   0  0  2  0  0  0  0  0  0  0  0  0
   37.4602   39.5261  -17.2874 O   0  0  0  0  0  0  0  0  0  0  0  0
   36.2271   36.9332  -15.6427 C   0  0  2  0  0  0  0  0  0  0  0  0
   35.4629   38.0431  -16.1417 O   0  0  0  0  0  0  0  0  0  0  0  0
   33.8380   35.9803  -19.4944 C   0  0  0  0  0  0  0  0  0  0  0  0
   32.9033   36.0506  -20.5735 O   0  0  0  0  0  0  0  0  0  0  0  0
   29.2345   35.8117  -19.4673 C   0  0  1  0  0  0  0  0  0  0  0  0
   30.3796   36.2036  -18.6898 O   0  0  0  0  0  0  0  0  0  0  0  0
   38.6033   41.5451  -16.5485 C   0  0  0  0  0  0  0  0  0  0  0  0
   38.0847   41.4721  -15.1749 O   0  0  0  0  0  0  0  0  0  0  0  0
   35.7381   36.5487  -14.2413 C   0  0  1  0  0  0  0  0  0  0  0  0
   34.3767   36.1169  -14.2998 O   0  0  0  0  0  0  0  0  0  0  0  0
   29.5569   34.5171  -20.2147 C   0  0  0  0  0  0  0  0  0  0  0  0
   29.9367   33.4803  -19.2449 N   0  0  0  0  0  0  0  0  0  0  0  0
  1  2  1  1  0  0  0
  1  7  1  0  0  0  0
  1 30  1  0  0  0  0
  3  4  1  1  0  0  0
  3  9  1  0  0  0  0
  3 39  1  0  0  0  0
  5 10  1  0  0  0  0
  5 26  1  0  0  0  0
  5 32  1  6  0  0  0
  6 12  1  0  0  0  0
  6 36  1  0  0  0  0
  6 19  1  1  0  0  0
  7  8  1  1  0  0  0
  7 14  1  0  0  0  0
  9 16  1  0  0  0  0
 10 11  1  1  0  0  0
 10 18  1  0  0  0  0
 12 13  1  1  0  0  0
 12 20  1  0  0  0  0
 14 15  1  6  0  0  0
 14 22  1  0  0  0  0
 16 17  1  1  0  0  0
 16 24  1  0  0  0  0
 18 19  1  1  0  0  0
 18 25  1  0  0  0  0
 20 21  1  6  0  0  0
 20 27  1  0  0  0  0
 22 23  1  1  0  0  0
 22 29  1  0  0  0  0
 24  2  1  6  0  0  0
 24 31  1  0  0  0  0
 25 26  1  0  0  0  0
 25 33  1  6  0  0  0
 27 28  1  1  0  0  0
 27 35  1  0  0  0  0
 29 30  1  0  0  0  0
 29 37  1  6  0  0  0
 31 32  1  1  0  0  0
 31 39  1  0  0  0  0
 33 34  1  0  0  0  0
 35 36  1  0  0  0  0
 35 41  1  1  0  0  0
 37 38  1  0  0  0  0
 39 40  1  6  0  0  0
 41 42  1  0  0  0  0
M  END
>  <CHROM.1>
176.78006004,-145.47288962,173.91995566,161.64967407,179.38733344,-59.62671182
-173.44581705,163.14595652,-62.56864092,34.56895941,37.41437785,-17.29048833
-0.02050299,-0.30336870,-1.12133042

>  <Name>
3c44_lig

>  <RI>
0

>  <Rbt.Current_Directory>
/home/itssahil/PROJECTS/Mol_Feturizer/New_Systems/rnas/3c44

>  <Rbt.Executable>
rbdock ($Id: //depot/dev/client3/rdock/2013.1/src/exe/rbdock.cxx#4 $)

>  <Rbt.Library>
libRbt.so (2013.1, Build901 2013/11/27)

>  <Rbt.Parameter_File>
/export/apps/rDock/src/rDock_2013.1_src/data/scripts/dock_solv.prm

>  <Rbt.Receptor>
prm/pocket_docking_7.prm

>  <SCORE>
-9.14234

>  <SCORE.INTER>
-8.18536

>  <SCORE.INTER.CONST>
1

>  <SCORE.INTER.POLAR>
-1.56042

>  <SCORE.INTER.ROT>
9

>  <SCORE.INTER.SOLV>
12.6673

>  <SCORE.INTER.VDW>
-14.0779

>  <SCORE.INTER.norm>
-0.19489

>  <SCORE.INTRA>
-0.959188

>  <SCORE.INTRA.DIHEDRAL>
-6.90183

>  <SCORE.INTRA.DIHEDRAL.0>
14.8538

>  <SCORE.INTRA.POLAR>
0

>  <SCORE.INTRA.POLAR.0>
0

>  <SCORE.INTRA.REPUL>
0

>  <SCORE.INTRA.REPUL.0>
0

>  <SCORE.INTRA.SOLV>
-2.56412

>  <SCORE.INTRA.SOLV.lig_0>
-100.951

>  <SCORE.INTRA.VDW>
3.77379

>  <SCORE.INTRA.VDW.0>
-5.71388

>  <SCORE.INTRA.norm>
-0.0228378

>  <SCORE.RESTR>
0.00220857

>  <SCORE.RESTR.CAVITY>
0.00220857

>  <SCORE.RESTR.norm>
5.25849e-05

>  <SCORE.SYSTEM>
0

>  <SCORE.SYSTEM.CONST>
0

>  <SCORE.SYSTEM.DIHEDRAL>
0

>  <SCORE.SYSTEM.SOLV>
0

>  <SCORE.SYSTEM.norm>
0

>  <SCORE.heavy>
42

>  <SCORE.norm>
-0.217675

>  <RMSD>
9.505

$$$$
3c44_lig
 OpenBabel11021811463D
libRbt.so/2013.1/901 2013/11/27
 42 45  0  0  0  0  0  0  0  0999 V2000
   37.6194   43.0495  -12.1865 C   0  0  2  0  0  0  0  0  0  0  0  0
   38.4523   41.9531  -11.7792 O   0  0  0  0  0  0  0  0  0  0  0  0
   40.5211   41.3367   -8.2394 C   0  0  2  0  0  0  0  0  0  0  0  0
   41.0723   41.1733   -6.8854 N   0  0  0  0  0  0  0  0  0  0  0  0
   38.1908   38.2753  -10.8649 C   0  0  1  0  0  0  0  0  0  0  0  0
   38.9342   34.9246  -13.0892 C   0  0  1  0  0  0  0  0  0  0  0  0
   36.8317   42.6426  -13.4363 C   0  0  2  0  0  0  0  0  0  0  0  0
   36.0826   41.3997  -13.2019 N   0  0  0  0  0  0  0  0  0  0  0  0
   39.9445   42.7438   -8.4211 C   0  0  0  0  0  0  0  0  0  0  0  0
   38.0822   38.4840  -12.3761 C   0  0  2  0  0  0  0  0  0  0  0  0
   36.7255   38.3236  -12.7948 O   0  0  0  0  0  0  0  0  0  0  0  0
   39.2734   35.0553  -14.5777 C   0  0  2  0  0  0  0  0  0  0  0  0
   38.0208   35.2480  -15.3212 N   0  0  0  0  0  0  0  0  0  0  0  0
   37.7579   42.4486  -14.6394 C   0  0  1  0  0  0  0  0  0  0  0  0
   36.9676   42.2271  -15.8115 O   0  0  0  0  0  0  0  0  0  0  0  0
   39.5337   42.8935   -9.8897 C   0  0  2  0  0  0  0  0  0  0  0  0
   38.9175   44.2138  -10.0903 N   0  0  0  0  0  0  0  0  0  0  0  0
   38.8922   37.2830  -12.8603 C   0  0  2  0  0  0  0  0  0  0  0  0
   38.1599   36.0615  -12.6686 O   0  0  0  0  0  0  0  0  0  0  0  0
   39.9705   33.7921  -15.0997 C   0  0  1  0  0  0  0  0  0  0  0  0
   41.2945   33.6966  -14.5678 O   0  0  0  0  0  0  0  0  0  0  0  0
   38.6235   43.6947  -14.8346 C   0  0  2  0  0  0  0  0  0  0  0  0
   39.5623   43.4673  -15.8890 O   0  0  0  0  0  0  0  0  0  0  0  0
   38.5486   41.8122  -10.3510 C   0  0  2  0  0  0  0  0  0  0  0  0
   40.0639   37.3307  -11.8924 C   0  0  2  0  0  0  0  0  0  0  0  0
   39.5696   37.9119  -10.6663 O   0  0  0  0  0  0  0  0  0  0  0  0
   39.1925   32.5341  -14.7102 C   0  0  2  0  0  0  0  0  0  0  0  0
   37.9506   32.5206  -15.4200 O   0  0  0  0  0  0  0  0  0  0  0  0
   39.3714   44.0067  -13.5375 C   0  0  2  0  0  0  0  0  0  0  0  0
   38.4358   44.2037  -12.4591 O   0  0  0  0  0  0  0  0  0  0  0  0
   38.9606   40.3890   -9.9803 C   0  0  2  0  0  0  0  0  0  0  0  0
   37.8510   39.5015  -10.1943 O   0  0  0  0  0  0  0  0  0  0  0  0
   41.1856   38.1820  -12.4913 C   0  0  0  0  0  0  0  0  0  0  0  0
   40.6118   39.1944  -13.3212 O   0  0  0  0  0  0  0  0  0  0  0  0
   38.9449   32.5497  -13.1995 C   0  0  1  0  0  0  0  0  0  0  0  0
   38.1770   33.7225  -12.8767 O   0  0  0  0  0  0  0  0  0  0  0  0
   40.1836   45.2842  -13.7656 C   0  0  0  0  0  0  0  0  0  0  0  0
   41.0026   45.5796  -12.5812 O   0  0  0  0  0  0  0  0  0  0  0  0
   39.4173   40.3136   -8.5186 C   0  0  1  0  0  0  0  0  0  0  0  0
   39.8818   38.9955   -8.2188 O   0  0  0  0  0  0  0  0  0  0  0  0
   38.1871   31.3094  -12.7242 C   0  0  0  0  0  0  0  0  0  0  0  0
   37.8178   31.4797  -11.3121 N   0  0  0  0  0  0  0  0  0  0  0  0
  1  2  1  6  0  0  0
  1  7  1  0  0  0  0
  1 30  1  0  0  0  0
  3  4  1  1  0  0  0
  3  9  1  0  0  0  0
  3 39  1  0  0  0  0
  5 10  1  0  0  0  0
  5 26  1  0  0  0  0
  5 32  1  1  0  0  0
  6 12  1  0  0  0  0
  6 36  1  0  0  0  0
  6 19  1  6  0  0  0
  7  8  1  1  0  0  0
  7 14  1  0  0  0  0
  9 16  1  0  0  0  0
 10 11  1  6  0  0  0
 10 18  1  0  0  0  0
 12 13  1  6  0  0  0
 12 20  1  0  0  0  0
 14 15  1  6  0  0  0
 14 22  1  0  0  0  0
 16 17  1  1  0  0  0
 16 24  1  0  0  0  0
 18 19  1  1  0  0  0
 18 25  1  0  0  0  0
 20 21  1  1  0  0  0
 20 27  1  0  0  0  0
 22 23  1  6  0  0  0
 22 29  1  0  0  0  0
 24  2  1  6  0  0  0
 24 31  1  0  0  0  0
 25 26  1  0  0  0  0
 25 33  1  6  0  0  0
 27 28  1  6  0  0  0
 27 35  1  0  0  0  0
 29 30  1  0  0  0  0
 29 37  1  6  0  0  0
 31 32  1  1  0  0  0
 31 39  1  0  0  0  0
 33 34  1  0  0  0  0
 35 36  1  0  0  0  0
 35 41  1  6  0  0  0
 37 38  1  0  0  0  0
 39 40  1  6  0  0  0
 41 42  1  0  0  0  0
M  END
>  <CHROM.1>
-142.53514397,-88.81591620,-60.33223775,-178.39911264,-77.70777754,30.75265112
-175.86455439,135.05502608,-171.98228298,38.92395039,39.07679465,-12.34932210
1.42800209,-1.36588906,0.03045470

>  <Name>
3c44_lig

>  <RI>
224

>  <Rbt.Current_Directory>
/home/itssahil/PROJECTS/Mol_Feturizer/New_Systems/rnas/3c44

>  <Rbt.Executable>
rbdock ($Id: //depot/dev/client3/rdock/2013.1/src/exe/rbdock.cxx#4 $)

>  <Rbt.Library>
libRbt.so (2013.1, Build901 2013/11/27)

>  <Rbt.Parameter_File>
/export/apps/rDock/src/rDock_2013.1_src/data/scripts/dock_solv.prm

>  <Rbt.Receptor>
prm/pocket_docking_8.prm

>  <SCORE>
-6.24585

>  <SCORE.INTER>
-13.6425

>  <SCORE.INTER.CONST>
1

>  <SCORE.INTER.POLAR>
-0.84169

>  <SCORE.INTER.ROT>
9

>  <SCORE.INTER.SOLV>
17.8651

>  <SCORE.INTER.VDW>
-21.8444

>  <SCORE.INTER.norm>
-0.324821

>  <SCORE.INTRA>
7.39663

>  <SCORE.INTRA.DIHEDRAL>
4.27653

>  <SCORE.INTRA.DIHEDRAL.0>
14.8538

>  <SCORE.INTRA.POLAR>
0

>  <SCORE.INTRA.POLAR.0>
0

>  <SCORE.INTRA.REPUL>
0.00456212

>  <SCORE.INTRA.REPUL.0>
0

>  <SCORE.INTRA.SOLV>
0.950196

>  <SCORE.INTRA.SOLV.lig_0>
-100.951

>  <SCORE.INTRA.VDW>
4.76046

>  <SCORE.INTRA.VDW.0>
-5.71388

>  <SCORE.INTRA.norm>
0.17611

>  <SCORE.RESTR>
0

>  <SCORE.RESTR.CAVITY>
0

>  <SCORE.RESTR.norm>
0

>  <SCORE.SYSTEM>
0

>  <SCORE.SYSTEM.CONST>
0

>  <SCORE.SYSTEM.DIHEDRAL>
0

>  <SCORE.SYSTEM.SOLV>
0

>  <SCORE.SYSTEM.norm>
0

>  <SCORE.heavy>
42

>  <SCORE.norm>
-0.148711

>  <RMSD>
9.516

$$$$
3c44_lig
 OpenBabel11021811463D
libRbt.so/2013.1/901 2013/11/27
 42 45  0  0  0  0  0  0  0  0999 V2000
   39.2843   42.8675  -13.4139 C   0  0  2  0  0  0  0  0  0  0  0  0
   39.7903   42.5378  -12.1111 O   0  0  0  0  0  0  0  0  0  0  0  0
   37.8016   40.5509   -9.0637 C   0  0  2  0  0  0  0  0  0  0  0  0
   36.9890   40.0299   -7.9537 N   0  0  0  0  0  0  0  0  0  0  0  0
   36.2083   40.6174  -13.1741 C   0  0  1  0  0  0  0  0  0  0  0  0
   33.3979   38.1501  -15.1318 C   0  0  1  0  0  0  0  0  0  0  0  0
   40.4416   42.8566  -14.4181 C   0  0  2  0  0  0  0  0  0  0  0  0
   41.1561   41.5724  -14.3802 N   0  0  0  0  0  0  0  0  0  0  0  0
   38.5486   41.8179   -8.6372 C   0  0  0  0  0  0  0  0  0  0  0  0
   35.3149   41.1978  -14.2714 C   0  0  2  0  0  0  0  0  0  0  0  0
   34.1173   41.7254  -13.6977 O   0  0  0  0  0  0  0  0  0  0  0  0
   32.8394   37.0046  -14.2811 C   0  0  2  0  0  0  0  0  0  0  0  0
   33.9351   36.4544  -13.4714 N   0  0  0  0  0  0  0  0  0  0  0  0
   41.4330   43.9885  -14.1374 C   0  0  1  0  0  0  0  0  0  0  0  0
   42.4036   44.0361  -15.1877 O   0  0  0  0  0  0  0  0  0  0  0  0
   39.4879   42.2132   -9.7816 C   0  0  2  0  0  0  0  0  0  0  0  0
   40.1796   43.4635   -9.4333 N   0  0  0  0  0  0  0  0  0  0  0  0
   34.9744   39.9166  -15.0301 C   0  0  2  0  0  0  0  0  0  0  0  0
   34.0510   39.1091  -14.2816 O   0  0  0  0  0  0  0  0  0  0  0  0
   32.2660   35.8881  -15.1636 C   0  0  1  0  0  0  0  0  0  0  0  0
   31.0569   36.3204  -15.7928 O   0  0  0  0  0  0  0  0  0  0  0  0
   40.6900   45.3239  -14.0672 C   0  0  2  0  0  0  0  0  0  0  0  0
   41.6012   46.3618  -13.6965 O   0  0  0  0  0  0  0  0  0  0  0  0
   38.7589   42.4062  -11.1172 C   0  0  2  0  0  0  0  0  0  0  0  0
   36.3360   39.2402  -15.0565 C   0  0  2  0  0  0  0  0  0  0  0  0
   37.0403   39.6724  -13.8723 O   0  0  0  0  0  0  0  0  0  0  0  0
   33.2641   35.4767  -16.2472 C   0  0  2  0  0  0  0  0  0  0  0  0
   34.3838   34.8390  -15.6261 O   0  0  0  0  0  0  0  0  0  0  0  0
   39.5668   45.2311  -13.0333 C   0  0  2  0  0  0  0  0  0  0  0  0
   38.6606   44.1647  -13.3780 O   0  0  0  0  0  0  0  0  0  0  0  0
   37.8063   41.2695  -11.4819 C   0  0  2  0  0  0  0  0  0  0  0  0
   36.9747   41.6795  -12.5797 O   0  0  0  0  0  0  0  0  0  0  0  0
   37.0864   39.6541  -16.3243 C   0  0  0  0  0  0  0  0  0  0  0  0
   36.3364   39.2389  -17.4680 O   0  0  0  0  0  0  0  0  0  0  0  0
   33.7149   36.7259  -17.0089 C   0  0  1  0  0  0  0  0  0  0  0  0
   34.3429   37.6245  -16.0775 O   0  0  0  0  0  0  0  0  0  0  0  0
   38.8240   46.5696  -13.0332 C   0  0  0  0  0  0  0  0  0  0  0  0
   39.6768   47.6198  -12.4579 O   0  0  0  0  0  0  0  0  0  0  0  0
   36.9351   40.8782  -10.2825 C   0  0  1  0  0  0  0  0  0  0  0  0
   36.1158   39.7562  -10.6185 O   0  0  0  0  0  0  0  0  0  0  0  0
   34.7024   36.3960  -18.1289 C   0  0  0  0  0  0  0  0  0  0  0  0
   35.9478   35.8839  -17.5404 N   0  0  0  0  0  0  0  0  0  0  0  0
  1  2  1  1  0  0  0
  1  7  1  0  0  0  0
  1 30  1  0  0  0  0
  3  4  1  1  0  0  0
  3  9  1  0  0  0  0
  3 39  1  0  0  0  0
  5 10  1  0  0  0  0
  5 26  1  0  0  0  0
  5 32  1  6  0  0  0
  6 12  1  0  0  0  0
  6 36  1  0  0  0  0
  6 19  1  1  0  0  0
  7  8  1  1  0  0  0
  7 14  1  0  0  0  0
  9 16  1  0  0  0  0
 10 11  1  1  0  0  0
 10 18  1  0  0  0  0
 12 13  1  6  0  0  0
 12 20  1  0  0  0  0
 14 15  1  6  0  0  0
 14 22  1  0  0  0  0
 16 17  1  1  0  0  0
 16 24  1  0  0  0  0
 18 19  1  1  0  0  0
 18 25  1  0  0  0  0
 20 21  1  6  0  0  0
 20 27  1  0  0  0  0
 22 23  1  1  0  0  0
 22 29  1  0  0  0  0
 24  2  1  6  0  0  0
 24 31  1  0  0  0  0
 25 26  1  0  0  0  0
 25 33  1  6  0  0  0
 27 28  1  1  0  0  0
 27 35  1  0  0  0  0
 29 30  1  0  0  0  0
 29 37  1  6  0  0  0
 31 32  1  6  0  0  0
 31 39  1  0  0  0  0
 33 34  1  0  0  0  0
 35 36  1  0  0  0  0
 35 41  1  6  0  0  0
 37 38  1  0  0  0  0
 39 40  1  6  0  0  0
 41 42  1  0  0  0  0
M  END
>  <CHROM.1>
-174.82629463,176.90746539,159.40815467,161.31513123,-173.83536918,-60.72630056
-69.81250256,169.12396416,-65.76990816,37.00966349,40.69375154,-13.64188451
-0.42476856,-0.83979084,-1.69471018

>  <Name>
3c44_lig

>  <RI>
0

>  <Rbt.Current_Directory>
/home/itssahil/PROJECTS/Mol_Feturizer/New_Systems/rnas/3c44

>  <Rbt.Executable>
rbdock ($Id: //depot/dev/client3/rdock/2013.1/src/exe/rbdock.cxx#4 $)

>  <Rbt.Library>
libRbt.so (2013.1, Build901 2013/11/27)

>  <Rbt.Parameter_File>
/export/apps/rDock/src/rDock_2013.1_src/data/scripts/dock_solv.prm

>  <Rbt.Receptor>
prm/pocket_docking_6.prm

>  <SCORE>
-9.35066

>  <SCORE.INTER>
-7.95697

>  <SCORE.INTER.CONST>
1

>  <SCORE.INTER.POLAR>
-1.7814

>  <SCORE.INTER.ROT>
9

>  <SCORE.INTER.SOLV>
10.2742

>  <SCORE.INTER.VDW>
-12.3914

>  <SCORE.INTER.norm>
-0.189452

>  <SCORE.INTRA>
-1.3937

>  <SCORE.INTRA.DIHEDRAL>
-9.61

>  <SCORE.INTRA.DIHEDRAL.0>
14.8538

>  <SCORE.INTRA.POLAR>
0

>  <SCORE.INTRA.POLAR.0>
0

>  <SCORE.INTRA.REPUL>
0.0276433

>  <SCORE.INTRA.REPUL.0>
0

>  <SCORE.INTRA.SOLV>
-1.00578

>  <SCORE.INTRA.SOLV.lig_0>
-100.951

>  <SCORE.INTRA.VDW>
3.77598

>  <SCORE.INTRA.VDW.0>
-5.71388

>  <SCORE.INTRA.norm>
-0.0331832

>  <SCORE.RESTR>
0

>  <SCORE.RESTR.CAVITY>
0

>  <SCORE.RESTR.norm>
0

>  <SCORE.SYSTEM>
0

>  <SCORE.SYSTEM.CONST>
0

>  <SCORE.SYSTEM.DIHEDRAL>
0

>  <SCORE.SYSTEM.SOLV>
0

>  <SCORE.SYSTEM.norm>
0

>  <SCORE.heavy>
42

>  <SCORE.norm>
-0.222635

>  <RMSD>
9.537

$$$$
3c44_lig
 OpenBabel11021811463D
libRbt.so/2013.1/901 2013/11/27
 42 45  0  0  0  0  0  0  0  0999 V2000
   39.7472   43.6826  -12.3126 C   0  0  2  0  0  0  0  0  0  0  0  0
   38.3557   44.0232  -12.2151 O   0  0  0  0  0  0  0  0  0  0  0  0
   37.9221   40.6697   -9.8160 C   0  0  2  0  0  0  0  0  0  0  0  0
   37.5813   39.5664   -8.9047 N   0  0  0  0  0  0  0  0  0  0  0  0
   36.3008   40.7709  -13.9116 C   0  0  1  0  0  0  0  0  0  0  0  0
   34.2197   37.6339  -15.7536 C   0  0  1  0  0  0  0  0  0  0  0  0
   40.5471   44.9407  -12.6667 C   0  0  2  0  0  0  0  0  0  0  0  0
   40.2790   46.0199  -11.7052 N   0  0  0  0  0  0  0  0  0  0  0  0
   37.8968   42.0094   -9.0746 C   0  0  0  0  0  0  0  0  0  0  0  0
   34.9204   40.7749  -14.5701 C   0  0  2  0  0  0  0  0  0  0  0  0
   33.9562   40.1998  -13.6863 O   0  0  0  0  0  0  0  0  0  0  0  0
   32.9655   37.8021  -14.8896 C   0  0  2  0  0  0  0  0  0  0  0  0
   33.3246   37.5142  -13.4941 N   0  0  0  0  0  0  0  0  0  0  0  0
   40.2139   45.4337  -14.0770 C   0  0  1  0  0  0  0  0  0  0  0  0
   41.0943   46.5079  -14.4210 O   0  0  0  0  0  0  0  0  0  0  0  0
   38.4097   43.0853  -10.0377 C   0  0  2  0  0  0  0  0  0  0  0  0
   38.3422   44.3990   -9.3800 N   0  0  0  0  0  0  0  0  0  0  0  0
   35.1800   39.8002  -15.7170 C   0  0  2  0  0  0  0  0  0  0  0  0
   35.2804   38.4521  -15.2297 O   0  0  0  0  0  0  0  0  0  0  0  0
   31.8582   36.8340  -15.3264 C   0  0  1  0  0  0  0  0  0  0  0  0
   31.3220   37.2274  -16.5923 O   0  0  0  0  0  0  0  0  0  0  0  0
   40.3850   44.2914  -15.0801 C   0  0  2  0  0  0  0  0  0  0  0  0
   39.9677   44.7248  -16.3775 O   0  0  0  0  0  0  0  0  0  0  0  0
   37.6151   43.1463  -11.3482 C   0  0  2  0  0  0  0  0  0  0  0  0
   36.5474   40.2764  -16.1813 C   0  0  2  0  0  0  0  0  0  0  0  0
   37.2126   40.8280  -15.0243 O   0  0  0  0  0  0  0  0  0  0  0  0
   32.3913   35.4049  -15.4411 C   0  0  2  0  0  0  0  0  0  0  0  0
   32.7233   34.9291  -14.1336 O   0  0  0  0  0  0  0  0  0  0  0  0
   39.5410   43.0938  -14.6411 C   0  0  2  0  0  0  0  0  0  0  0  0
   39.9294   42.6697  -13.3195 O   0  0  0  0  0  0  0  0  0  0  0  0
   37.4012   41.7894  -12.0158 C   0  0  2  0  0  0  0  0  0  0  0  0
   36.4175   41.9204  -13.0550 O   0  0  0  0  0  0  0  0  0  0  0  0
   36.3753   41.3346  -17.2730 C   0  0  0  0  0  0  0  0  0  0  0  0
   35.8525   42.5292  -16.6878 O   0  0  0  0  0  0  0  0  0  0  0  0
   33.6305   35.4065  -16.3402 C   0  0  1  0  0  0  0  0  0  0  0  0
   34.6253   36.2559  -15.7416 O   0  0  0  0  0  0  0  0  0  0  0  0
   39.7813   41.9635  -15.6451 C   0  0  0  0  0  0  0  0  0  0  0  0
   41.1937   41.5568  -15.6186 O   0  0  0  0  0  0  0  0  0  0  0  0
   36.9465   40.7411  -10.9934 C   0  0  1  0  0  0  0  0  0  0  0  0
   36.8386   39.4612  -11.6205 O   0  0  0  0  0  0  0  0  0  0  0  0
   34.2143   34.0051  -16.5238 C   0  0  0  0  0  0  0  0  0  0  0  0
   35.2771   34.0528  -17.5375 N   0  0  0  0  0  0  0  0  0  0  0  0
  1  2  1  6  0  0  0
  1  7  1  0  0  0  0
  1 30  1  0  0  0  0
  3  4  1  1  0  0  0
  3  9  1  0  0  0  0
  3 39  1  0  0  0  0
  5 10  1  0  0  0  0
  5 26  1  0  0  0  0
  5 32  1  1  0  0  0
  6 12  1  0  0  0  0
  6 36  1  0  0  0  0
  6 19  1  1  0  0  0
  7  8  1  1  0  0  0
  7 14  1  0  0  0  0
  9 16  1  0  0  0  0
 10 11  1  1  0  0  0
 10 18  1  0  0  0  0
 12 13  1  1  0  0  0
 12 20  1  0  0  0  0
 14 15  1  6  0  0  0
 14 22  1  0  0  0  0
 16 17  1  1  0  0  0
 16 24  1  0  0  0  0
 18 19  1  1  0  0  0
 18 25  1  0  0  0  0
 20 21  1  6  0  0  0
 20 27  1  0  0  0  0
 22 23  1  6  0  0  0
 22 29  1  0  0  0  0
 24  2  1  6  0  0  0
 24 31  1  0  0  0  0
 25 26  1  0  0  0  0
 25 33  1  6  0  0  0
 27 28  1  1  0  0  0
 27 35  1  0  0  0  0
 29 30  1  0  0  0  0
 29 37  1  6  0  0  0
 31 32  1  6  0  0  0
 31 39  1  0  0  0  0
 33 34  1  0  0  0  0
 35 36  1  0  0  0  0
 35 41  1  1  0  0  0
 37 38  1  0  0  0  0
 39 40  1  6  0  0  0
 41 42  1  0  0  0  0
M  END
>  <CHROM.1>
-153.86702310,157.37012650,-84.16964555,116.08327545,50.58093010,70.24622885
62.56078866,169.51778922,172.20480801,36.77883964,40.66188353,-13.94905743
0.35873916,0.88008089,1.46858824

>  <Name>
3c44_lig

>  <RI>
0

>  <Rbt.Current_Directory>
/home/itssahil/PROJECTS/Mol_Feturizer/New_Systems/rnas/3c44

>  <Rbt.Executable>
rbdock ($Id: //depot/dev/client3/rdock/2013.1/src/exe/rbdock.cxx#4 $)

>  <Rbt.Library>
libRbt.so (2013.1, Build901 2013/11/27)

>  <Rbt.Parameter_File>
/export/apps/rDock/src/rDock_2013.1_src/data/scripts/dock_solv.prm

>  <Rbt.Receptor>
prm/pocket_docking_4.prm

>  <SCORE>
-3.81231

>  <SCORE.INTER>
-7.80927

>  <SCORE.INTER.CONST>
1

>  <SCORE.INTER.POLAR>
-1

>  <SCORE.INTER.ROT>
9

>  <SCORE.INTER.SOLV>
13.5745

>  <SCORE.INTER.VDW>
-15.9977

>  <SCORE.INTER.norm>
-0.185935

>  <SCORE.INTRA>
3.97697

>  <SCORE.INTRA.DIHEDRAL>
1.26944

>  <SCORE.INTRA.DIHEDRAL.0>
14.8538

>  <SCORE.INTRA.POLAR>
0

>  <SCORE.INTRA.POLAR.0>
0

>  <SCORE.INTRA.REPUL>
0.0805641

>  <SCORE.INTRA.REPUL.0>
0

>  <SCORE.INTRA.SOLV>
-0.379053

>  <SCORE.INTRA.SOLV.lig_0>
-100.951

>  <SCORE.INTRA.VDW>
3.12895

>  <SCORE.INTRA.VDW.0>
-5.71388

>  <SCORE.INTRA.norm>
0.0946897

>  <SCORE.RESTR>
0.019993

>  <SCORE.RESTR.CAVITY>
0.019993

>  <SCORE.RESTR.norm>
0.000476023

>  <SCORE.SYSTEM>
0

>  <SCORE.SYSTEM.CONST>
0

>  <SCORE.SYSTEM.DIHEDRAL>
0

>  <SCORE.SYSTEM.SOLV>
0

>  <SCORE.SYSTEM.norm>
0

>  <SCORE.heavy>
42

>  <SCORE.norm>
-0.0907692

>  <RMSD>
9.541

$$$$
3c44_lig
 OpenBabel11021811463D
libRbt.so/2013.1/901 2013/11/27
 42 45  0  0  0  0  0  0  0  0999 V2000
   37.3572   39.2435  -15.4473 C   0  0  2  0  0  0  0  0  0  0  0  0
   38.7060   39.7113  -15.2938 O   0  0  0  0  0  0  0  0  0  0  0  0
   41.8464   37.3707  -13.9340 C   0  0  2  0  0  0  0  0  0  0  0  0
   42.8888   36.5862  -13.2545 N   0  0  0  0  0  0  0  0  0  0  0  0
   37.9890   35.5631  -14.2283 C   0  0  1  0  0  0  0  0  0  0  0  0
   36.9001   31.6688  -12.9168 C   0  0  1  0  0  0  0  0  0  0  0  0
   36.6832   40.0220  -16.5820 C   0  0  2  0  0  0  0  0  0  0  0  0
   37.4729   39.9343  -17.8188 N   0  0  0  0  0  0  0  0  0  0  0  0
   41.8469   38.8176  -13.4325 C   0  0  0  0  0  0  0  0  0  0  0  0
   36.6810   35.1530  -13.5500 C   0  0  2  0  0  0  0  0  0  0  0  0
   36.8542   35.1254  -12.1319 O   0  0  0  0  0  0  0  0  0  0  0  0
   35.8343   32.0357  -11.8789 C   0  0  2  0  0  0  0  0  0  0  0  0
   36.4650   32.8661  -10.8435 N   0  0  0  0  0  0  0  0  0  0  0  0
   36.4963   41.4954  -16.2119 C   0  0  1  0  0  0  0  0  0  0  0  0
   35.7256   42.1427  -17.2290 O   0  0  0  0  0  0  0  0  0  0  0  0
   40.8510   39.6081  -14.2877 C   0  0  2  0  0  0  0  0  0  0  0  0
   40.7781   40.9920  -13.7952 N   0  0  0  0  0  0  0  0  0  0  0  0
   36.5662   33.7178  -14.0599 C   0  0  2  0  0  0  0  0  0  0  0  0
   37.5250   32.8663  -13.4113 O   0  0  0  0  0  0  0  0  0  0  0  0
   35.2487   30.7804  -11.2190 C   0  0  1  0  0  0  0  0  0  0  0  0
   34.4309   30.0637  -12.1476 O   0  0  0  0  0  0  0  0  0  0  0  0
   35.7681   41.6055  -14.8710 C   0  0  2  0  0  0  0  0  0  0  0  0
   35.6933   42.9779  -14.4762 O   0  0  0  0  0  0  0  0  0  0  0  0
   39.4409   39.0047  -14.2791 C   0  0  2  0  0  0  0  0  0  0  0  0
   36.9589   33.9090  -15.5164 C   0  0  2  0  0  0  0  0  0  0  0  0
   37.8671   35.0309  -15.5604 O   0  0  0  0  0  0  0  0  0  0  0  0
   36.3583   29.8519  -10.7227 C   0  0  2  0  0  0  0  0  0  0  0  0
   37.0399   30.4858   -9.6365 O   0  0  0  0  0  0  0  0  0  0  0  0
   36.5250   40.8049  -13.8102 C   0  0  2  0  0  0  0  0  0  0  0  0
   36.6370   39.4259  -14.2140 O   0  0  0  0  0  0  0  0  0  0  0  0
   39.4008   37.5003  -14.5394 C   0  0  2  0  0  0  0  0  0  0  0  0
   38.0919   36.9977  -14.2246 O   0  0  0  0  0  0  0  0  0  0  0  0
   35.7057   34.1830  -16.3506 C   0  0  0  0  0  0  0  0  0  0  0  0
   35.1259   35.4201  -15.9306 O   0  0  0  0  0  0  0  0  0  0  0  0
   37.3284   29.5755  -11.8744 C   0  0  1  0  0  0  0  0  0  0  0  0
   37.8909   30.8273  -12.3055 O   0  0  0  0  0  0  0  0  0  0  0  0
   35.7357   40.9048  -12.5023 C   0  0  0  0  0  0  0  0  0  0  0  0
   34.3890   40.3433  -12.6817 O   0  0  0  0  0  0  0  0  0  0  0  0
   40.4574   36.7706  -13.7015 C   0  0  1  0  0  0  0  0  0  0  0  0
   40.4629   35.3786  -14.0259 O   0  0  0  0  0  0  0  0  0  0  0  0
   38.4608   28.6333  -11.4639 C   0  0  0  0  0  0  0  0  0  0  0  0
   39.2548   28.2855  -12.6506 N   0  0  0  0  0  0  0  0  0  0  0  0
  1  2  1  1  0  0  0
  1  7  1  0  0  0  0
  1 30  1  0  0  0  0
  3  4  1  1  0  0  0
  3  9  1  0  0  0  0
  3 39  1  0  0  0  0
  5 10  1  0  0  0  0
  5 26  1  0  0  0  0
  5 32  1  6  0  0  0
  6 12  1  0  0  0  0
  6 36  1  0  0  0  0
  6 19  1  1  0  0  0
  7  8  1  6  0  0  0
  7 14  1  0  0  0  0
  9 16  1  0  0  0  0
 10 11  1  1  0  0  0
 10 18  1  0  0  0  0
 12 13  1  1  0  0  0
 12 20  1  0  0  0  0
 14 15  1  6  0  0  0
 14 22  1  0  0  0  0
 16 17  1  1  0  0  0
 16 24  1  0  0  0  0
 18 19  1  1  0  0  0
 18 25  1  0  0  0  0
 20 21  1  6  0  0  0
 20 27  1  0  0  0  0
 22 23  1  1  0  0  0
 22 29  1  0  0  0  0
 24  2  1  6  0  0  0
 24 31  1  0  0  0  0
 25 26  1  0  0  0  0
 25 33  1  6  0  0  0
 27 28  1  1  0  0  0
 27 35  1  0  0  0  0
 29 30  1  0  0  0  0
 29 37  1  1  0  0  0
 31 32  1  1  0  0  0
 31 39  1  0  0  0  0
 33 34  1  0  0  0  0
 35 36  1  0  0  0  0
 35 41  1  1  0  0  0
 37 38  1  0  0  0  0
 39 40  1  6  0  0  0
 41 42  1  0  0  0  0
M  END
>  <CHROM.1>
-177.89383385,165.93888265,-61.41962658,131.01451306,178.44968299,64.30030737
60.39792259,-170.71866049,173.25082363,37.57898802,36.04589471,-13.78402020
1.53042076,-0.04424127,-0.29877033

>  <Name>
3c44_lig

>  <RI>
0

>  <Rbt.Current_Directory>
/home/itssahil/PROJECTS/Mol_Feturizer/New_Systems/rnas/3c44

>  <Rbt.Executable>
rbdock ($Id: //depot/dev/client3/rdock/2013.1/src/exe/rbdock.cxx#4 $)

>  <Rbt.Library>
libRbt.so (2013.1, Build901 2013/11/27)

>  <Rbt.Parameter_File>
/export/apps/rDock/src/rDock_2013.1_src/data/scripts/dock_solv.prm

>  <Rbt.Receptor>
prm/pocket_docking_4.prm

>  <SCORE>
-14.8951

>  <SCORE.INTER>
-17.5532

>  <SCORE.INTER.CONST>
1

>  <SCORE.INTER.POLAR>
-2.35505

>  <SCORE.INTER.ROT>
9

>  <SCORE.INTER.SOLV>
25.2792

>  <SCORE.INTER.VDW>
-21.8784

>  <SCORE.INTER.norm>
-0.417933

>  <SCORE.INTRA>
2.6581

>  <SCORE.INTRA.DIHEDRAL>
-6.72474

>  <SCORE.INTRA.DIHEDRAL.0>
14.8538

>  <SCORE.INTRA.POLAR>
0

>  <SCORE.INTRA.POLAR.0>
0

>  <SCORE.INTRA.REPUL>
0.106572

>  <SCORE.INTRA.REPUL.0>
0

>  <SCORE.INTRA.SOLV>
-2.82252

>  <SCORE.INTRA.SOLV.lig_0>
-100.951

>  <SCORE.INTRA.VDW>
6.89887

>  <SCORE.INTRA.VDW.0>
-5.71388

>  <SCORE.INTRA.norm>
0.063288

>  <SCORE.RESTR>
0

>  <SCORE.RESTR.CAVITY>
0

>  <SCORE.RESTR.norm>
0

>  <SCORE.SYSTEM>
0

>  <SCORE.SYSTEM.CONST>
0

>  <SCORE.SYSTEM.DIHEDRAL>
0

>  <SCORE.SYSTEM.SOLV>
0

>  <SCORE.SYSTEM.norm>
0

>  <SCORE.heavy>
42

>  <SCORE.norm>
-0.354645

>  <RMSD>
9.546

$$$$
3c44_lig
 OpenBabel11021811463D
libRbt.so/2013.1/901 2013/11/27
 42 45  0  0  0  0  0  0  0  0999 V2000
   40.2891   44.0363  -12.9838 C   0  0  2  0  0  0  0  0  0  0  0  0
   39.4845   43.0456  -13.6418 O   0  0  0  0  0  0  0  0  0  0  0  0
   39.5685   40.9209  -10.0825 C   0  0  2  0  0  0  0  0  0  0  0  0
   39.4680   40.0277   -8.9181 N   0  0  0  0  0  0  0  0  0  0  0  0
   40.3524   39.3733  -13.9470 C   0  0  1  0  0  0  0  0  0  0  0  0
   38.3949   36.1536  -15.6254 C   0  0  1  0  0  0  0  0  0  0  0  0
   40.0928   45.3857  -13.6826 C   0  0  2  0  0  0  0  0  0  0  0  0
   38.6678   45.7416  -13.7439 N   0  0  0  0  0  0  0  0  0  0  0  0
   38.1770   41.3618  -10.5461 C   0  0  0  0  0  0  0  0  0  0  0  0
   40.9148   38.8799  -15.2810 C   0  0  2  0  0  0  0  0  0  0  0  0
   40.3375   39.6205  -16.3580 O   0  0  0  0  0  0  0  0  0  0  0  0
   36.9784   36.1973  -16.2080 C   0  0  2  0  0  0  0  0  0  0  0  0
   36.1766   37.1287  -15.4026 N   0  0  0  0  0  0  0  0  0  0  0  0
   40.6644   45.3658  -15.1024 C   0  0  1  0  0  0  0  0  0  0  0  0
   40.6017   46.6845  -15.6542 O   0  0  0  0  0  0  0  0  0  0  0  0
   38.3629   42.4049  -11.6531 C   0  0  2  0  0  0  0  0  0  0  0  0
   37.0454   42.8083  -12.1674 N   0  0  0  0  0  0  0  0  0  0  0  0
   40.3413   37.4644  -15.2939 C   0  0  2  0  0  0  0  0  0  0  0  0
   38.9274   37.4877  -15.5499 O   0  0  0  0  0  0  0  0  0  0  0  0
   36.3196   34.8122  -16.1666 C   0  0  1  0  0  0  0  0  0  0  0  0
   36.9344   33.9384  -17.1171 O   0  0  0  0  0  0  0  0  0  0  0  0
   42.1193   44.8941  -15.0697 C   0  0  2  0  0  0  0  0  0  0  0  0
   42.6148   44.7716  -16.4055 O   0  0  0  0  0  0  0  0  0  0  0  0
   39.2156   41.8950  -12.8215 C   0  0  2  0  0  0  0  0  0  0  0  0
   40.5902   37.0514  -13.8518 C   0  0  2  0  0  0  0  0  0  0  0  0
   40.5463   38.2573  -13.0585 O   0  0  0  0  0  0  0  0  0  0  0  0
   36.4398   34.1878  -14.7754 C   0  0  2  0  0  0  0  0  0  0  0  0
   35.6394   34.9412  -13.8600 O   0  0  0  0  0  0  0  0  0  0  0  0
   42.2028   43.5402  -14.3632 C   0  0  2  0  0  0  0  0  0  0  0  0
   41.6736   43.6434  -13.0265 O   0  0  0  0  0  0  0  0  0  0  0  0
   40.5202   41.2223  -12.3994 C   0  0  2  0  0  0  0  0  0  0  0  0
   41.0879   40.5356  -13.5267 O   0  0  0  0  0  0  0  0  0  0  0  0
   41.9572   36.3723  -13.7446 C   0  0  0  0  0  0  0  0  0  0  0  0
   41.8867   35.0810  -14.3534 O   0  0  0  0  0  0  0  0  0  0  0  0
   37.9089   34.2103  -14.3449 C   0  0  1  0  0  0  0  0  0  0  0  0
   38.3515   35.5786  -14.3097 O   0  0  0  0  0  0  0  0  0  0  0  0
   43.6776   43.1333  -14.3121 C   0  0  0  0  0  0  0  0  0  0  0  0
   44.1500   42.7787  -15.6583 O   0  0  0  0  0  0  0  0  0  0  0  0
   40.2811   40.2350  -11.2508 C   0  0  1  0  0  0  0  0  0  0  0  0
   41.5252   39.6844  -10.8125 O   0  0  0  0  0  0  0  0  0  0  0  0
   38.1179   33.5814  -12.9668 C   0  0  0  0  0  0  0  0  0  0  0  0
   37.3748   34.3566  -11.9636 N   0  0  0  0  0  0  0  0  0  0  0  0
  1  2  1  6  0  0  0
  1  7  1  0  0  0  0
  1 30  1  0  0  0  0
  3  4  1  1  0  0  0
  3  9  1  0  0  0  0
  3 39  1  0  0  0  0
  5 10  1  0  0  0  0
  5 26  1  0  0  0  0
  5 32  1  1  0  0  0
  6 12  1  0  0  0  0
  6 36  1  0  0  0  0
  6 19  1  1  0  0  0
  7  8  1  6  0  0  0
  7 14  1  0  0  0  0
  9 16  1  0  0  0  0
 10 11  1  6  0  0  0
 10 18  1  0  0  0  0
 12 13  1  1  0  0  0
 12 20  1  0  0  0  0
 14 15  1  1  0  0  0
 14 22  1  0  0  0  0
 16 17  1  6  0  0  0
 16 24  1  0  0  0  0
 18 19  1  1  0  0  0
 18 25  1  0  0  0  0
 20 21  1  6  0  0  0
 20 27  1  0  0  0  0
 22 23  1  6  0  0  0
 22 29  1  0  0  0  0
 24  2  1  6  0  0  0
 24 31  1  0  0  0  0
 25 26  1  0  0  0  0
 25 33  1  6  0  0  0
 27 28  1  1  0  0  0
 27 35  1  0  0  0  0
 29 30  1  0  0  0  0
 29 37  1  1  0  0  0
 31 32  1  6  0  0  0
 31 39  1  0  0  0  0
 33 34  1  0  0  0  0
 35 36  1  0  0  0  0
 35 41  1  1  0  0  0
 37 38  1  0  0  0  0
 39 40  1  1  0  0  0
 41 42  1  0  0  0  0
M  END
>  <CHROM.1>
-159.17255587,170.41714118,-167.16840929,177.28355369,64.91724670,-71.97830770
-70.68393666,-69.67005485,-62.01085236,39.69790721,39.72678401,-13.88547437
0.92650034,0.98656581,0.62862250

>  <Name>
3c44_lig

>  <RI>
0

>  <Rbt.Current_Directory>
/home/itssahil/PROJECTS/Mol_Feturizer/New_Systems/rnas/3c44

>  <Rbt.Executable>
rbdock ($Id: //depot/dev/client3/rdock/2013.1/src/exe/rbdock.cxx#4 $)

>  <Rbt.Library>
libRbt.so (2013.1, Build901 2013/11/27)

>  <Rbt.Parameter_File>
/export/apps/rDock/src/rDock_2013.1_src/data/scripts/dock_solv.prm

>  <Rbt.Receptor>
prm/pocket_docking_4.prm

>  <SCORE>
-7.09529

>  <SCORE.INTER>
-6.45799

>  <SCORE.INTER.CONST>
1

>  <SCORE.INTER.POLAR>
-0.938083

>  <SCORE.INTER.ROT>
9

>  <SCORE.INTER.SOLV>
14.2191

>  <SCORE.INTER.VDW>
-15.5181

>  <SCORE.INTER.norm>
-0.153762

>  <SCORE.INTRA>
-0.644485

>  <SCORE.INTRA.DIHEDRAL>
-9.67071

>  <SCORE.INTRA.DIHEDRAL.0>
14.8538

>  <SCORE.INTRA.POLAR>
0

>  <SCORE.INTRA.POLAR.0>
0

>  <SCORE.INTRA.REPUL>
0

>  <SCORE.INTRA.REPUL.0>
0

>  <SCORE.INTRA.SOLV>
-1.27181

>  <SCORE.INTRA.SOLV.lig_0>
-100.951

>  <SCORE.INTRA.VDW>
4.82678

>  <SCORE.INTRA.VDW.0>
-5.71388

>  <SCORE.INTRA.norm>
-0.0153449

>  <SCORE.RESTR>
0.00718394

>  <SCORE.RESTR.CAVITY>
0.00718394

>  <SCORE.RESTR.norm>
0.000171046

>  <SCORE.SYSTEM>
0

>  <SCORE.SYSTEM.CONST>
0

>  <SCORE.SYSTEM.DIHEDRAL>
0

>  <SCORE.SYSTEM.SOLV>
0

>  <SCORE.SYSTEM.norm>
0

>  <SCORE.heavy>
42

>  <SCORE.norm>
-0.168935

>  <RMSD>
9.574

$$$$
3c44_lig
 OpenBabel11021811463D
libRbt.so/2013.1/901 2013/11/27
 42 45  0  0  0  0  0  0  0  0999 V2000
   40.4996   38.8260  -14.4385 C   0  0  2  0  0  0  0  0  0  0  0  0
   41.3464   39.3671  -13.4129 O   0  0  0  0  0  0  0  0  0  0  0  0
   40.7874   39.7539   -9.3230 C   0  0  2  0  0  0  0  0  0  0  0  0
   40.4280   40.0238   -7.9223 N   0  0  0  0  0  0  0  0  0  0  0  0
   39.0720   36.5566  -12.2425 C   0  0  1  0  0  0  0  0  0  0  0  0
   37.7290   32.5201  -12.3625 C   0  0  1  0  0  0  0  0  0  0  0  0
   41.3680   38.1143  -15.4813 C   0  0  2  0  0  0  0  0  0  0  0  0
   42.2285   37.1057  -14.8462 N   0  0  0  0  0  0  0  0  0  0  0  0
   41.0714   41.0609  -10.0687 C   0  0  0  0  0  0  0  0  0  0  0  0
   37.7966   36.0405  -12.9102 C   0  0  2  0  0  0  0  0  0  0  0  0
   36.7484   35.9352  -11.9448 O   0  0  0  0  0  0  0  0  0  0  0  0
   36.4975   32.3787  -11.4619 C   0  0  2  0  0  0  0  0  0  0  0  0
   36.9136   32.6091  -10.0716 N   0  0  0  0  0  0  0  0  0  0  0  0
   42.2447   39.1080  -16.2475 C   0  0  1  0  0  0  0  0  0  0  0  0
   42.9149   38.4232  -17.3101 O   0  0  0  0  0  0  0  0  0  0  0  0
   41.5873   40.6986  -11.4654 C   0  0  2  0  0  0  0  0  0  0  0  0
   41.8136   41.9311  -12.2352 N   0  0  0  0  0  0  0  0  0  0  0  0
   38.2570   34.6352  -13.2921 C   0  0  2  0  0  0  0  0  0  0  0  0
   38.3533   33.7950  -12.1302 O   0  0  0  0  0  0  0  0  0  0  0  0
   35.8899   30.9740  -11.5711 C   0  0  1  0  0  0  0  0  0  0  0  0
   35.2664   30.7977  -12.8459 O   0  0  0  0  0  0  0  0  0  0  0  0
   41.3767   40.2263  -16.8274 C   0  0  2  0  0  0  0  0  0  0  0  0
   42.2102   41.2091  -17.4473 O   0  0  0  0  0  0  0  0  0  0  0  0
   40.6230   39.7971  -12.2464 C   0  0  2  0  0  0  0  0  0  0  0  0
   39.6512   34.9344  -13.8203 C   0  0  2  0  0  0  0  0  0  0  0  0
   40.1243   36.1011  -13.1131 O   0  0  0  0  0  0  0  0  0  0  0  0
   36.9612   29.8966  -11.3948 C   0  0  2  0  0  0  0  0  0  0  0  0
   37.4310   29.9287  -10.0441 O   0  0  0  0  0  0  0  0  0  0  0  0
   40.5615   40.8747  -15.7074 C   0  0  2  0  0  0  0  0  0  0  0  0
   39.7427   39.8861  -15.0521 O   0  0  0  0  0  0  0  0  0  0  0  0
   40.1136   38.5920  -11.4585 C   0  0  2  0  0  0  0  0  0  0  0  0
   39.0155   37.9916  -12.1645 O   0  0  0  0  0  0  0  0  0  0  0  0
   39.5807   35.1954  -15.3264 C   0  0  0  0  0  0  0  0  0  0  0  0
   39.2249   33.9831  -15.9948 O   0  0  0  0  0  0  0  0  0  0  0  0
   38.1106   30.1735  -12.3674 C   0  0  1  0  0  0  0  0  0  0  0  0
   38.6605   31.4679  -12.0648 O   0  0  0  0  0  0  0  0  0  0  0  0
   39.6762   41.9510  -16.3409 C   0  0  0  0  0  0  0  0  0  0  0  0
   38.8799   42.6235  -15.3043 O   0  0  0  0  0  0  0  0  0  0  0  0
   39.6676   39.0061  -10.0511 C   0  0  1  0  0  0  0  0  0  0  0  0
   39.2793   37.8523   -9.3020 O   0  0  0  0  0  0  0  0  0  0  0  0
   39.2183   29.1239  -12.2684 C   0  0  0  0  0  0  0  0  0  0  0  0
   38.6734   27.8093  -12.6349 N   0  0  0  0  0  0  0  0  0  0  0  0
  1  2  1  1  0  0  0
  1  7  1  0  0  0  0
  1 30  1  0  0  0  0
  3  4  1  1  0  0  0
  3  9  1  0  0  0  0
  3 39  1  0  0  0  0
  5 10  1  0  0  0  0
  5 26  1  0  0  0  0
  5 32  1  6  0  0  0
  6 12  1  0  0  0  0
  6 36  1  0  0  0  0
  6 19  1  1  0  0  0
  7  8  1  1  0  0  0
  7 14  1  0  0  0  0
  9 16  1  0  0  0  0
 10 11  1  1  0  0  0
 10 18  1  0  0  0  0
 12 13  1  1  0  0  0
 12 20  1  0  0  0  0
 14 15  1  6  0  0  0
 14 22  1  0  0  0  0
 16 17  1  6  0  0  0
 16 24  1  0  0  0  0
 18 19  1  1  0  0  0
 18 25  1  0  0  0  0
 20 21  1  6  0  0  0
 20 27  1  0  0  0  0
 22 23  1  1  0  0  0
 22 29  1  0  0  0  0
 24  2  1  6  0  0  0
 24 31  1  0  0  0  0
 25 26  1  0  0  0  0
 25 33  1  6  0  0  0
 27 28  1  1  0  0  0
 27 35  1  0  0  0  0
 29 30  1  0  0  0  0
 29 37  1  6  0  0  0
 31 32  1  6  0  0  0
 31 39  1  0  0  0  0
 33 34  1  0  0  0  0
 35 36  1  0  0  0  0
 35 41  1  1  0  0  0
 37 38  1  0  0  0  0
 39 40  1  1  0  0  0
 41 42  1  0  0  0  0
M  END
>  <CHROM.1>
-167.20803388,175.30674316,-113.80941125,133.22095989,-163.69596229,-67.45138173
-179.22937278,135.16150866,62.29182524,39.45727258,36.40798015,-12.98955259
-0.39624497,-1.20110695,-2.22941629

>  <Name>
3c44_lig

>  <RI>
0

>  <Rbt.Current_Directory>
/home/itssahil/PROJECTS/Mol_Feturizer/New_Systems/rnas/3c44

>  <Rbt.Executable>
rbdock ($Id: //depot/dev/client3/rdock/2013.1/src/exe/rbdock.cxx#4 $)

>  <Rbt.Library>
libRbt.so (2013.1, Build901 2013/11/27)

>  <Rbt.Parameter_File>
/export/apps/rDock/src/rDock_2013.1_src/data/scripts/dock_solv.prm

>  <Rbt.Receptor>
prm/pocket_docking_5.prm

>  <SCORE>
-11.8168

>  <SCORE.INTER>
-14.2522

>  <SCORE.INTER.CONST>
1

>  <SCORE.INTER.POLAR>
-0.656052

>  <SCORE.INTER.ROT>
9

>  <SCORE.INTER.SOLV>
24.7663

>  <SCORE.INTER.VDW>
-25.17

>  <SCORE.INTER.norm>
-0.339337

>  <SCORE.INTRA>
2.40019

>  <SCORE.INTRA.DIHEDRAL>
6.89193

>  <SCORE.INTRA.DIHEDRAL.0>
14.8538

>  <SCORE.INTRA.POLAR>
0

>  <SCORE.INTRA.POLAR.0>
0

>  <SCORE.INTRA.REPUL>
0

>  <SCORE.INTRA.REPUL.0>
0

>  <SCORE.INTRA.SOLV>
-1.86423

>  <SCORE.INTRA.SOLV.lig_0>
-100.951

>  <SCORE.INTRA.VDW>
-0.11366

>  <SCORE.INTRA.VDW.0>
-5.71388

>  <SCORE.INTRA.norm>
0.0571473

>  <SCORE.RESTR>
0.0352203

>  <SCORE.RESTR.CAVITY>
0.0352203

>  <SCORE.RESTR.norm>
0.000838578

>  <SCORE.SYSTEM>
0

>  <SCORE.SYSTEM.CONST>
0

>  <SCORE.SYSTEM.DIHEDRAL>
0

>  <SCORE.SYSTEM.SOLV>
0

>  <SCORE.SYSTEM.norm>
0

>  <SCORE.heavy>
42

>  <SCORE.norm>
-0.281351

>  <RMSD>
9.586

$$$$
3c44_lig
 OpenBabel11021811463D
libRbt.so/2013.1/901 2013/11/27
 42 45  0  0  0  0  0  0  0  0999 V2000
   38.0749   42.5586  -14.9852 C   0  0  2  0  0  0  0  0  0  0  0  0
   38.6695   41.6186  -14.0772 O   0  0  0  0  0  0  0  0  0  0  0  0
   37.6362   39.9877  -10.4081 C   0  0  2  0  0  0  0  0  0  0  0  0
   37.2282   39.6109   -9.0460 N   0  0  0  0  0  0  0  0  0  0  0  0
   34.9554   40.5690  -14.1345 C   0  0  1  0  0  0  0  0  0  0  0  0
   32.9125   38.0880  -16.7060 C   0  0  1  0  0  0  0  0  0  0  0  0
   38.9404   42.6532  -16.2461 C   0  0  2  0  0  0  0  0  0  0  0  0
   39.1489   41.3244  -16.8394 N   0  0  0  0  0  0  0  0  0  0  0  0
   38.7622   41.0248  -10.3668 C   0  0  0  0  0  0  0  0  0  0  0  0
   35.8019   39.9317  -15.2374 C   0  0  2  0  0  0  0  0  0  0  0  0
   35.8858   40.8127  -16.3592 O   0  0  0  0  0  0  0  0  0  0  0  0
   32.8308   38.0026  -18.2336 C   0  0  2  0  0  0  0  0  0  0  0  0
   32.3785   39.3039  -18.7450 N   0  0  0  0  0  0  0  0  0  0  0  0
   40.3016   43.2834  -15.9410 C   0  0  1  0  0  0  0  0  0  0  0  0
   41.0080   43.4957  -17.1671 O   0  0  0  0  0  0  0  0  0  0  0  0
   39.2402   41.2520  -11.8048 C   0  0  2  0  0  0  0  0  0  0  0  0
   40.2824   42.2896  -11.8128 N   0  0  0  0  0  0  0  0  0  0  0  0
   34.9021   38.7530  -15.6032 C   0  0  2  0  0  0  0  0  0  0  0  0
   33.7443   39.1991  -16.3282 O   0  0  0  0  0  0  0  0  0  0  0  0
   31.8342   36.9229  -18.6754 C   0  0  1  0  0  0  0  0  0  0  0  0
   32.3543   35.6200  -18.3979 O   0  0  0  0  0  0  0  0  0  0  0  0
   40.1056   44.6214  -15.2258 C   0  0  2  0  0  0  0  0  0  0  0  0
   41.3771   45.1534  -14.8450 O   0  0  0  0  0  0  0  0  0  0  0  0
   38.1116   41.6767  -12.7527 C   0  0  2  0  0  0  0  0  0  0  0  0
   34.4851   38.2824  -14.2187 C   0  0  2  0  0  0  0  0  0  0  0  0
   34.4943   39.4450  -13.3621 O   0  0  0  0  0  0  0  0  0  0  0  0
   30.4955   37.0818  -17.9527 C   0  0  2  0  0  0  0  0  0  0  0  0
   29.8685   38.2867  -18.4011 O   0  0  0  0  0  0  0  0  0  0  0  0
   39.2402   44.4149  -13.9817 C   0  0  2  0  0  0  0  0  0  0  0  0
   37.9681   43.8461  -14.3497 O   0  0  0  0  0  0  0  0  0  0  0  0
   36.8571   40.8103  -12.6622 C   0  0  2  0  0  0  0  0  0  0  0  0
   35.7808   41.4570  -13.3608 O   0  0  0  0  0  0  0  0  0  0  0  0
   35.4725   37.2248  -13.7208 C   0  0  0  0  0  0  0  0  0  0  0  0
   35.0064   36.6995  -12.4760 O   0  0  0  0  0  0  0  0  0  0  0  0
   30.7481   37.1399  -16.4439 C   0  0  1  0  0  0  0  0  0  0  0  0
   31.5933   38.2707  -16.1676 O   0  0  0  0  0  0  0  0  0  0  0  0
   39.0322   45.7836  -13.3284 C   0  0  0  0  0  0  0  0  0  0  0  0
   38.2197   46.6417  -14.2027 O   0  0  0  0  0  0  0  0  0  0  0  0
   36.4622   40.5685  -11.2005 C   0  0  1  0  0  0  0  0  0  0  0  0
   35.3410   39.6841  -11.1368 O   0  0  0  0  0  0  0  0  0  0  0  0
   29.4516   37.2776  -15.6448 C   0  0  0  0  0  0  0  0  0  0  0  0
   28.5949   36.1131  -15.9084 N   0  0  0  0  0  0  0  0  0  0  0  0
  1  2  1  1  0  0  0
  1  7  1  0  0  0  0
  1 30  1  0  0  0  0
  3  4  1  1  0  0  0
  3  9  1  0  0  0  0
  3 39  1  0  0  0  0
  5 10  1  0  0  0  0
  5 26  1  0  0  0  0
  5 32  1  1  0  0  0
  6 12  1  0  0  0  0
  6 36  1  0  0  0  0
  6 19  1  6  0  0  0
  7  8  1  1  0  0  0
  7 14  1  0  0  0  0
  9 16  1  0  0  0  0
 10 11  1  6  0  0  0
 10 18  1  0  0  0  0
 12 13  1  1  0  0  0
 12 20  1  0  0  0  0
 14 15  1  6  0  0  0
 14 22  1  0  0  0  0
 16 17  1  1  0  0  0
 16 24  1  0  0  0  0
 18 19  1  6  0  0  0
 18 25  1  0  0  0  0
 20 21  1  1  0  0  0
 20 27  1  0  0  0  0
 22 23  1  1  0  0  0
 22 29  1  0  0  0  0
 24  2  1  6  0  0  0
 24 31  1  0  0  0  0
 25 26  1  0  0  0  0
 25 33  1  1  0  0  0
 27 28  1  6  0  0  0
 27 35  1  0  0  0  0
 29 30  1  0  0  0  0
 29 37  1  6  0  0  0
 31 32  1  6  0  0  0
 31 39  1  0  0  0  0
 33 34  1  0  0  0  0
 35 36  1  0  0  0  0
 35 41  1  1  0  0  0
 37 38  1  0  0  0  0
 39 40  1  6  0  0  0
 41 42  1  0  0  0  0
M  END
>  <CHROM.1>
166.78822290,-63.26325079,-117.66352017,178.44245266,-150.48186388,-174.70962986
66.70244617,139.45376797,60.69944696,35.84101694,40.41664399,-14.73555469
-0.09143242,-0.70083943,-1.23474447

>  <Name>
3c44_lig

>  <RI>
0

>  <Rbt.Current_Directory>
/home/itssahil/PROJECTS/Mol_Feturizer/New_Systems/rnas/3c44

>  <Rbt.Executable>
rbdock ($Id: //depot/dev/client3/rdock/2013.1/src/exe/rbdock.cxx#4 $)

>  <Rbt.Library>
libRbt.so (2013.1, Build901 2013/11/27)

>  <Rbt.Parameter_File>
/export/apps/rDock/src/rDock_2013.1_src/data/scripts/dock_solv.prm

>  <Rbt.Receptor>
prm/pocket_docking_5.prm

>  <SCORE>
-14.5935

>  <SCORE.INTER>
-17.384

>  <SCORE.INTER.CONST>
1

>  <SCORE.INTER.POLAR>
-2.71054

>  <SCORE.INTER.ROT>
9

>  <SCORE.INTER.SOLV>
18.1501

>  <SCORE.INTER.VDW>
-18.2043

>  <SCORE.INTER.norm>
-0.413906

>  <SCORE.INTRA>
2.77787

>  <SCORE.INTRA.DIHEDRAL>
2.89737

>  <SCORE.INTRA.DIHEDRAL.0>
14.8538

>  <SCORE.INTRA.POLAR>
0

>  <SCORE.INTRA.POLAR.0>
0

>  <SCORE.INTRA.REPUL>
0

>  <SCORE.INTRA.REPUL.0>
0

>  <SCORE.INTRA.SOLV>
-1.00747

>  <SCORE.INTRA.SOLV.lig_0>
-100.951

>  <SCORE.INTRA.VDW>
1.83291

>  <SCORE.INTRA.VDW.0>
-5.71388

>  <SCORE.INTRA.norm>
0.0661397

>  <SCORE.RESTR>
0.0127208

>  <SCORE.RESTR.CAVITY>
0.0127208

>  <SCORE.RESTR.norm>
0.000302876

>  <SCORE.SYSTEM>
0

>  <SCORE.SYSTEM.CONST>
0

>  <SCORE.SYSTEM.DIHEDRAL>
0

>  <SCORE.SYSTEM.SOLV>
0

>  <SCORE.SYSTEM.norm>
0

>  <SCORE.heavy>
42

>  <SCORE.norm>
-0.347463

>  <RMSD>
9.600

$$$$
3c44_lig
 OpenBabel11021811463D
libRbt.so/2013.1/901 2013/11/27
 42 45  0  0  0  0  0  0  0  0999 V2000
   38.4709   43.3888  -13.4014 C   0  0  2  0  0  0  0  0  0  0  0  0
   38.8047   43.2841  -12.0088 O   0  0  0  0  0  0  0  0  0  0  0  0
   36.8768   41.5860   -8.7547 C   0  0  2  0  0  0  0  0  0  0  0  0
   36.0303   41.1156   -7.6474 N   0  0  0  0  0  0  0  0  0  0  0  0
   36.6250   39.9886  -12.9627 C   0  0  1  0  0  0  0  0  0  0  0  0
   34.5156   36.9652  -14.2743 C   0  0  1  0  0  0  0  0  0  0  0  0
   39.6557   42.8962  -14.2389 C   0  0  2  0  0  0  0  0  0  0  0  0
   40.0530   41.5391  -13.8372 N   0  0  0  0  0  0  0  0  0  0  0  0
   37.0700   43.1033   -8.6792 C   0  0  0  0  0  0  0  0  0  0  0  0
   35.7244   39.8346  -14.1892 C   0  0  2  0  0  0  0  0  0  0  0  0
   34.3675   39.6548  -13.7792 O   0  0  0  0  0  0  0  0  0  0  0  0
   34.4108   35.4501  -14.0708 C   0  0  2  0  0  0  0  0  0  0  0  0
   35.5031   34.8079  -14.8149 N   0  0  0  0  0  0  0  0  0  0  0  0
   40.8605   43.8305  -14.1026 C   0  0  1  0  0  0  0  0  0  0  0  0
   41.8803   43.4211  -15.0190 O   0  0  0  0  0  0  0  0  0  0  0  0
   38.0804   43.4994   -9.7610 C   0  0  2  0  0  0  0  0  0  0  0  0
   38.2462   44.9607   -9.7602 N   0  0  0  0  0  0  0  0  0  0  0  0
   36.2543   38.5090  -14.7323 C   0  0  2  0  0  0  0  0  0  0  0  0
   35.8321   37.4122  -13.9055 O   0  0  0  0  0  0  0  0  0  0  0  0
   33.0721   34.9125  -14.5930 C   0  0  1  0  0  0  0  0  0  0  0  0
   32.0000   35.3348  -13.7461 O   0  0  0  0  0  0  0  0  0  0  0  0
   40.4404   45.2681  -14.4142 C   0  0  2  0  0  0  0  0  0  0  0  0
   41.5400   46.1516  -14.1792 O   0  0  0  0  0  0  0  0  0  0  0  0
   37.6627   43.0493  -11.1665 C   0  0  2  0  0  0  0  0  0  0  0  0
   37.7512   38.7215  -14.5698 C   0  0  2  0  0  0  0  0  0  0  0  0
   37.9275   39.6065  -13.4424 O   0  0  0  0  0  0  0  0  0  0  0  0
   32.7987   35.4057  -16.0148 C   0  0  2  0  0  0  0  0  0  0  0  0
   33.7443   34.8029  -16.9029 O   0  0  0  0  0  0  0  0  0  0  0  0
   39.2630   45.6624  -13.5212 C   0  0  2  0  0  0  0  0  0  0  0  0
   38.1600   44.7572  -13.7242 O   0  0  0  0  0  0  0  0  0  0  0  0
   37.2252   41.5886  -11.2532 C   0  0  2  0  0  0  0  0  0  0  0  0
   36.5894   41.3568  -12.5208 O   0  0  0  0  0  0  0  0  0  0  0  0
   38.3201   39.3401  -15.8486 C   0  0  0  0  0  0  0  0  0  0  0  0
   38.1843   38.4047  -16.9208 O   0  0  0  0  0  0  0  0  0  0  0  0
   32.9316   36.9306  -16.0469 C   0  0  1  0  0  0  0  0  0  0  0  0
   34.2712   37.2785  -15.6548 O   0  0  0  0  0  0  0  0  0  0  0  0
   38.8483   47.0861  -13.9014 C   0  0  0  0  0  0  0  0  0  0  0  0
   37.8689   47.6016  -12.9340 O   0  0  0  0  0  0  0  0  0  0  0  0
   36.2631   41.2358  -10.1126 C   0  0  1  0  0  0  0  0  0  0  0  0
   35.9371   39.8449  -10.1604 O   0  0  0  0  0  0  0  0  0  0  0  0
   32.6513   37.5069  -17.4353 C   0  0  0  0  0  0  0  0  0  0  0  0
   32.8970   38.9557  -17.4163 N   0  0  0  0  0  0  0  0  0  0  0  0
  1  2  1  1  0  0  0
  1  7  1  0  0  0  0
  1 30  1  0  0  0  0
  3  4  1  1  0  0  0
  3  9  1  0  0  0  0
  3 39  1  0  0  0  0
  5 10  1  0  0  0  0
  5 26  1  0  0  0  0
  5 32  1  6  0  0  0
  6 12  1  0  0  0  0
  6 36  1  0  0  0  0
  6 19  1  6  0  0  0
  7  8  1  1  0  0  0
  7 14  1  0  0  0  0
  9 16  1  0  0  0  0
 10 11  1  1  0  0  0
 10 18  1  0  0  0  0
 12 13  1  6  0  0  0
 12 20  1  0  0  0  0
 14 15  1  6  0  0  0
 14 22  1  0  0  0  0
 16 17  1  6  0  0  0
 16 24  1  0  0  0  0
 18 19  1  1  0  0  0
 18 25  1  0  0  0  0
 20 21  1  1  0  0  0
 20 27  1  0  0  0  0
 22 23  1  1  0  0  0
 22 29  1  0  0  0  0
 24  2  1  6  0  0  0
 24 31  1  0  0  0  0
 25 26  1  0  0  0  0
 25 33  1  6  0  0  0
 27 28  1  6  0  0  0
 27 35  1  0  0  0  0
 29 30  1  0  0  0  0
 29 37  1  6  0  0  0
 31 32  1  6  0  0  0
 31 39  1  0  0  0  0
 33 34  1  0  0  0  0
 35 36  1  0  0  0  0
 35 41  1  6  0  0  0
 37 38  1  0  0  0  0
 39 40  1  1  0  0  0
 41 42  1  0  0  0  0
M  END
>  <CHROM.1>
-150.07026531,170.62662805,146.21800264,84.45697170,-158.61235437,-65.17118730
-170.79030812,155.74340977,-175.69488592,36.80708355,40.62621674,-13.51325506
-0.61434321,-0.89093921,-1.98064567

>  <Name>
3c44_lig

>  <RI>
0

>  <Rbt.Current_Directory>
/home/itssahil/PROJECTS/Mol_Feturizer/New_Systems/rnas/3c44

>  <Rbt.Executable>
rbdock ($Id: //depot/dev/client3/rdock/2013.1/src/exe/rbdock.cxx#4 $)

>  <Rbt.Library>
libRbt.so (2013.1, Build901 2013/11/27)

>  <Rbt.Parameter_File>
/export/apps/rDock/src/rDock_2013.1_src/data/scripts/dock_solv.prm

>  <Rbt.Receptor>
prm/pocket_docking_7.prm

>  <SCORE>
-10.7491

>  <SCORE.INTER>
-13.6833

>  <SCORE.INTER.CONST>
1

>  <SCORE.INTER.POLAR>
-2.39002

>  <SCORE.INTER.ROT>
9

>  <SCORE.INTER.SOLV>
13.907

>  <SCORE.INTER.VDW>
-15.3912

>  <SCORE.INTER.norm>
-0.325794

>  <SCORE.INTRA>
2.93423

>  <SCORE.INTRA.DIHEDRAL>
1.29032

>  <SCORE.INTRA.DIHEDRAL.0>
14.8538

>  <SCORE.INTRA.POLAR>
0

>  <SCORE.INTRA.POLAR.0>
0

>  <SCORE.INTRA.REPUL>
0

>  <SCORE.INTRA.REPUL.0>
0

>  <SCORE.INTRA.SOLV>
-0.801074

>  <SCORE.INTRA.SOLV.lig_0>
-100.951

>  <SCORE.INTRA.VDW>
2.68961

>  <SCORE.INTRA.VDW.0>
-5.71388

>  <SCORE.INTRA.norm>
0.0698627

>  <SCORE.RESTR>
0

>  <SCORE.RESTR.CAVITY>
0

>  <SCORE.RESTR.norm>
0

>  <SCORE.SYSTEM>
0

>  <SCORE.SYSTEM.CONST>
0

>  <SCORE.SYSTEM.DIHEDRAL>
0

>  <SCORE.SYSTEM.SOLV>
0

>  <SCORE.SYSTEM.norm>
0

>  <SCORE.heavy>
42

>  <SCORE.norm>
-0.255931

>  <RMSD>
9.607

$$$$
3c44_lig
 OpenBabel11021811463D
libRbt.so/2013.1/901 2013/11/27
 42 45  0  0  0  0  0  0  0  0999 V2000
   40.4592   44.1247  -12.0462 C   0  0  2  0  0  0  0  0  0  0  0  0
   39.1089   44.1268  -11.5579 O   0  0  0  0  0  0  0  0  0  0  0  0
   40.2259   41.0664   -8.9936 C   0  0  2  0  0  0  0  0  0  0  0  0
   40.4531   40.0393   -7.9653 N   0  0  0  0  0  0  0  0  0  0  0  0
   37.4143   40.5236  -12.4599 C   0  0  1  0  0  0  0  0  0  0  0  0
   36.1808   36.7499  -13.2617 C   0  0  1  0  0  0  0  0  0  0  0  0
   40.6106   45.2219  -13.1050 C   0  0  2  0  0  0  0  0  0  0  0  0
   40.1871   46.5253  -12.5731 N   0  0  0  0  0  0  0  0  0  0  0  0
   40.1752   42.4605   -8.3619 C   0  0  0  0  0  0  0  0  0  0  0  0
   36.0373   39.8672  -12.3502 C   0  0  2  0  0  0  0  0  0  0  0  0
   36.0217   38.9450  -11.2588 O   0  0  0  0  0  0  0  0  0  0  0  0
   37.0995   35.5343  -13.4228 C   0  0  2  0  0  0  0  0  0  0  0  0
   37.6621   35.5576  -14.7800 N   0  0  0  0  0  0  0  0  0  0  0  0
   39.7910   44.9034  -14.3580 C   0  0  1  0  0  0  0  0  0  0  0  0
   40.0869   45.8682  -15.3724 O   0  0  0  0  0  0  0  0  0  0  0  0
   40.0939   43.4851   -9.4984 C   0  0  2  0  0  0  0  0  0  0  0  0
   39.9815   44.8361   -8.9283 N   0  0  0  0  0  0  0  0  0  0  0  0
   36.0224   39.0808  -13.6595 C   0  0  2  0  0  0  0  0  0  0  0  0
   36.9053   37.9493  -13.5865 O   0  0  0  0  0  0  0  0  0  0  0  0
   36.3240   34.2245  -13.2301 C   0  0  1  0  0  0  0  0  0  0  0  0
   35.9581   34.0584  -11.8577 O   0  0  0  0  0  0  0  0  0  0  0  0
   40.1419   43.5037  -14.8659 C   0  0  2  0  0  0  0  0  0  0  0  0
   39.2967   43.1671  -15.9692 O   0  0  0  0  0  0  0  0  0  0  0  0
   38.9072   43.2447  -10.4399 C   0  0  2  0  0  0  0  0  0  0  0  0
   36.6003   40.1163  -14.6112 C   0  0  2  0  0  0  0  0  0  0  0  0
   37.4816   40.9540  -13.8321 O   0  0  0  0  0  0  0  0  0  0  0  0
   35.0542   34.2071  -14.0828 C   0  0  2  0  0  0  0  0  0  0  0  0
   35.4253   34.1493  -15.4630 O   0  0  0  0  0  0  0  0  0  0  0  0
   39.9482   42.4871  -13.7398 C   0  0  2  0  0  0  0  0  0  0  0  0
   40.7698   42.8360  -12.6082 O   0  0  0  0  0  0  0  0  0  0  0  0
   38.7671   41.8004  -10.9164 C   0  0  2  0  0  0  0  0  0  0  0  0
   37.4845   41.6278  -11.5409 O   0  0  0  0  0  0  0  0  0  0  0  0
   35.4630   40.9357  -15.2249 C   0  0  0  0  0  0  0  0  0  0  0  0
   34.5231   40.0478  -15.8341 O   0  0  0  0  0  0  0  0  0  0  0  0
   34.2464   35.4762  -13.7988 C   0  0  1  0  0  0  0  0  0  0  0  0
   35.0542   36.6158  -14.1428 O   0  0  0  0  0  0  0  0  0  0  0  0
   40.3562   41.1136  -14.2790 C   0  0  0  0  0  0  0  0  0  0  0  0
   41.7953   41.0963  -14.5782 O   0  0  0  0  0  0  0  0  0  0  0  0
   38.9162   40.8203   -9.7468 C   0  0  1  0  0  0  0  0  0  0  0  0
   38.8711   39.4749  -10.2274 O   0  0  0  0  0  0  0  0  0  0  0  0
   32.9450   35.5254  -14.6003 C   0  0  0  0  0  0  0  0  0  0  0  0
   32.0989   34.3858  -14.2194 N   0  0  0  0  0  0  0  0  0  0  0  0
  1  2  1  6  0  0  0
  1  7  1  0  0  0  0
  1 30  1  0  0  0  0
  3  4  1  1  0  0  0
  3  9  1  0  0  0  0
  3 39  1  0  0  0  0
  5 10  1  0  0  0  0
  5 26  1  0  0  0  0
  5 32  1  1  0  0  0
  6 12  1  0  0  0  0
  6 36  1  0  0  0  0
  6 19  1  6  0  0  0
  7  8  1  1  0  0  0
  7 14  1  0  0  0  0
  9 16  1  0  0  0  0
 10 11  1  1  0  0  0
 10 18  1  0  0  0  0
 12 13  1  6  0  0  0
 12 20  1  0  0  0  0
 14 15  1  6  0  0  0
 14 22  1  0  0  0  0
 16 17  1  1  0  0  0
 16 24  1  0  0  0  0
 18 19  1  1  0  0  0
 18 25  1  0  0  0  0
 20 21  1  1  0  0  0
 20 27  1  0  0  0  0
 22 23  1  6  0  0  0
 22 29  1  0  0  0  0
 24  2  1  6  0  0  0
 24 31  1  0  0  0  0
 25 26  1  0  0  0  0
 25 33  1  1  0  0  0
 27 28  1  6  0  0  0
 27 35  1  0  0  0  0
 29 30  1  0  0  0  0
 29 37  1  6  0  0  0
 31 32  1  1  0  0  0
 31 39  1  0  0  0  0
 33 34  1  0  0  0  0
 35 36  1  0  0  0  0
 35 41  1  6  0  0  0
 37 38  1  0  0  0  0
 39 40  1  6  0  0  0
 41 42  1  0  0  0  0
M  END
>  <CHROM.1>
-172.62892198,143.16635114,170.53358840,97.44625527,44.86875432,-54.67881099
65.57763889,157.35273834,61.60357051,37.86927561,40.19715344,-12.83055966
0.28555490,-1.01408043,-1.01241700

>  <Name>
3c44_lig

>  <RI>
0

>  <Rbt.Current_Directory>
/home/itssahil/PROJECTS/Mol_Feturizer/New_Systems/rnas/3c44

>  <Rbt.Executable>
rbdock ($Id: //depot/dev/client3/rdock/2013.1/src/exe/rbdock.cxx#4 $)

>  <Rbt.Library>
libRbt.so (2013.1, Build901 2013/11/27)

>  <Rbt.Parameter_File>
/export/apps/rDock/src/rDock_2013.1_src/data/scripts/dock_solv.prm

>  <Rbt.Receptor>
prm/pocket_docking_5.prm

>  <SCORE>
-13.3577

>  <SCORE.INTER>
-15.2319

>  <SCORE.INTER.CONST>
1

>  <SCORE.INTER.POLAR>
-3.005

>  <SCORE.INTER.ROT>
9

>  <SCORE.INTER.SOLV>
18.1135

>  <SCORE.INTER.VDW>
-15.7758

>  <SCORE.INTER.norm>
-0.362665

>  <SCORE.INTRA>
1.87424

>  <SCORE.INTRA.DIHEDRAL>
-0.883099

>  <SCORE.INTRA.DIHEDRAL.0>
14.8538

>  <SCORE.INTRA.POLAR>
0

>  <SCORE.INTRA.POLAR.0>
0

>  <SCORE.INTRA.REPUL>
0

>  <SCORE.INTRA.REPUL.0>
0

>  <SCORE.INTRA.SOLV>
-2.63253

>  <SCORE.INTRA.SOLV.lig_0>
-100.951

>  <SCORE.INTRA.VDW>
3.63206

>  <SCORE.INTRA.VDW.0>
-5.71388

>  <SCORE.INTRA.norm>
0.0446248

>  <SCORE.RESTR>
0

>  <SCORE.RESTR.CAVITY>
0

>  <SCORE.RESTR.norm>
0

>  <SCORE.SYSTEM>
0

>  <SCORE.SYSTEM.CONST>
0

>  <SCORE.SYSTEM.DIHEDRAL>
0

>  <SCORE.SYSTEM.SOLV>
0

>  <SCORE.SYSTEM.norm>
0

>  <SCORE.heavy>
42

>  <SCORE.norm>
-0.31804

>  <RMSD>
9.622

$$$$
3c44_lig
 OpenBabel11021811463D
libRbt.so/2013.1/901 2013/11/27
 42 45  0  0  0  0  0  0  0  0999 V2000
   38.1442   43.6561   -8.3761 C   0  0  2  0  0  0  0  0  0  0  0  0
   39.0293   42.5386   -8.2037 O   0  0  0  0  0  0  0  0  0  0  0  0
   39.1013   38.9502   -6.1282 C   0  0  2  0  0  0  0  0  0  0  0  0
   38.9167   37.7084   -5.3616 N   0  0  0  0  0  0  0  0  0  0  0  0
   38.0663   38.9803  -10.3539 C   0  0  1  0  0  0  0  0  0  0  0  0
   37.5381   36.1164  -13.4678 C   0  0  1  0  0  0  0  0  0  0  0  0
   37.1463   43.3367   -9.4942 C   0  0  2  0  0  0  0  0  0  0  0  0
   36.4428   42.0745   -9.2239 N   0  0  0  0  0  0  0  0  0  0  0  0
   38.6107   40.1583   -5.3250 C   0  0  0  0  0  0  0  0  0  0  0  0
   37.5147   39.2855  -11.7473 C   0  0  2  0  0  0  0  0  0  0  0  0
   36.1066   39.0450  -11.7786 O   0  0  0  0  0  0  0  0  0  0  0  0
   36.5699   34.9521  -13.2339 C   0  0  2  0  0  0  0  0  0  0  0  0
   37.0232   34.2052  -12.0525 N   0  0  0  0  0  0  0  0  0  0  0  0
   37.8450   43.2384  -10.8526 C   0  0  1  0  0  0  0  0  0  0  0  0
   36.8594   43.0981  -11.8804 O   0  0  0  0  0  0  0  0  0  0  0  0
   38.9746   41.4212   -6.1127 C   0  0  2  0  0  0  0  0  0  0  0  0
   38.4640   42.6025   -5.4009 N   0  0  0  0  0  0  0  0  0  0  0  0
   38.2189   38.1916  -12.5477 C   0  0  2  0  0  0  0  0  0  0  0  0
   37.6449   36.9041  -12.2689 O   0  0  0  0  0  0  0  0  0  0  0  0
   36.5428   34.0038  -14.4397 C   0  0  1  0  0  0  0  0  0  0  0  0
   35.8921   34.6268  -15.5503 O   0  0  0  0  0  0  0  0  0  0  0  0
   38.6701   44.5017  -11.1046 C   0  0  2  0  0  0  0  0  0  0  0  0
   39.4072   44.3593  -12.3217 O   0  0  0  0  0  0  0  0  0  0  0  0
   38.4124   41.4218   -7.5398 C   0  0  2  0  0  0  0  0  0  0  0  0
   39.6151   38.2662  -11.9501 C   0  0  2  0  0  0  0  0  0  0  0  0
   39.4624   38.7172  -10.5868 O   0  0  0  0  0  0  0  0  0  0  0  0
   37.9593   33.6073  -14.8592 C   0  0  2  0  0  0  0  0  0  0  0  0
   38.5336   32.7916  -13.8341 O   0  0  0  0  0  0  0  0  0  0  0  0
   39.6366   44.7227   -9.9400 C   0  0  2  0  0  0  0  0  0  0  0  0
   38.9066   44.8331   -8.7022 O   0  0  0  0  0  0  0  0  0  0  0  0
   38.6677   40.1309   -8.3151 C   0  0  2  0  0  0  0  0  0  0  0  0
   37.8637   40.1243   -9.5060 O   0  0  0  0  0  0  0  0  0  0  0  0
   40.4653   39.2462  -12.7614 C   0  0  0  0  0  0  0  0  0  0  0  0
   40.0148   40.5784  -12.5059 O   0  0  0  0  0  0  0  0  0  0  0  0
   38.7917   34.8761  -15.0622 C   0  0  1  0  0  0  0  0  0  0  0  0
   38.8310   35.5979  -13.8185 O   0  0  0  0  0  0  0  0  0  0  0  0
   40.4034   46.0193  -10.2128 C   0  0  0  0  0  0  0  0  0  0  0  0
   39.4895   47.1689  -10.1489 O   0  0  0  0  0  0  0  0  0  0  0  0
   38.3426   38.9026   -7.4569 C   0  0  1  0  0  0  0  0  0  0  0  0
   38.6725   37.7077   -8.1685 O   0  0  0  0  0  0  0  0  0  0  0  0
   40.2219   34.5653  -15.5055 C   0  0  0  0  0  0  0  0  0  0  0  0
   40.8927   33.7804  -14.4598 N   0  0  0  0  0  0  0  0  0  0  0  0
  1  2  1  6  0  0  0
  1  7  1  0  0  0  0
  1 30  1  0  0  0  0
  3  4  1  1  0  0  0
  3  9  1  0  0  0  0
  3 39  1  0  0  0  0
  5 10  1  0  0  0  0
  5 26  1  0  0  0  0
  5 32  1  1  0  0  0
  6 12  1  0  0  0  0
  6 36  1  0  0  0  0
  6 19  1  1  0  0  0
  7  8  1  1  0  0  0
  7 14  1  0  0  0  0
  9 16  1  0  0  0  0
 10 11  1  1  0  0  0
 10 18  1  0  0  0  0
 12 13  1  1  0  0  0
 12 20  1  0  0  0  0
 14 15  1  6  0  0  0
 14 22  1  0  0  0  0
 16 17  1  1  0  0  0
 16 24  1  0  0  0  0
 18 19  1  1  0  0  0
 18 25  1  0  0  0  0
 20 21  1  6  0  0  0
 20 27  1  0  0  0  0
 22 23  1  6  0  0  0
 22 29  1  0  0  0  0
 24  2  1  6  0  0  0
 24 31  1  0  0  0  0
 25 26  1  0  0  0  0
 25 33  1  6  0  0  0
 27 28  1  1  0  0  0
 27 35  1  0  0  0  0
 29 30  1  0  0  0  0
 29 37  1  6  0  0  0
 31 32  1  6  0  0  0
 31 39  1  0  0  0  0
 33 34  1  0  0  0  0
 35 36  1  0  0  0  0
 35 41  1  1  0  0  0
 37 38  1  0  0  0  0
 39 40  1  6  0  0  0
 41 42  1  0  0  0  0
M  END
>  <CHROM.1>
-74.39334916,-162.51652983,-163.35390338,139.87558643,-105.10009715,71.52307158
66.91902647,177.23691724,-61.77167832,38.42966742,39.47366633,-10.80623580
-0.68516834,-1.49355207,-1.71831148

>  <Name>
3c44_lig

>  <RI>
224

>  <Rbt.Current_Directory>
/home/itssahil/PROJECTS/Mol_Feturizer/New_Systems/rnas/3c44

>  <Rbt.Executable>
rbdock ($Id: //depot/dev/client3/rdock/2013.1/src/exe/rbdock.cxx#4 $)

>  <Rbt.Library>
libRbt.so (2013.1, Build901 2013/11/27)

>  <Rbt.Parameter_File>
/export/apps/rDock/src/rDock_2013.1_src/data/scripts/dock_solv.prm

>  <Rbt.Receptor>
prm/pocket_docking_8.prm

>  <SCORE>
-9.22177

>  <SCORE.INTER>
-14.8014

>  <SCORE.INTER.CONST>
1

>  <SCORE.INTER.POLAR>
-2.72538

>  <SCORE.INTER.ROT>
9

>  <SCORE.INTER.SOLV>
19.2961

>  <SCORE.INTER.VDW>
-16.815

>  <SCORE.INTER.norm>
-0.352413

>  <SCORE.INTRA>
5.57959

>  <SCORE.INTRA.DIHEDRAL>
0.953385

>  <SCORE.INTRA.DIHEDRAL.0>
14.8538

>  <SCORE.INTRA.POLAR>
0

>  <SCORE.INTRA.POLAR.0>
0

>  <SCORE.INTRA.REPUL>
0.0114877

>  <SCORE.INTRA.REPUL.0>
0

>  <SCORE.INTRA.SOLV>
2.3293

>  <SCORE.INTRA.SOLV.lig_0>
-100.951

>  <SCORE.INTRA.VDW>
3.88081

>  <SCORE.INTRA.VDW.0>
-5.71388

>  <SCORE.INTRA.norm>
0.132847

>  <SCORE.RESTR>
0

>  <SCORE.RESTR.CAVITY>
0

>  <SCORE.RESTR.norm>
0

>  <SCORE.SYSTEM>
0

>  <SCORE.SYSTEM.CONST>
0

>  <SCORE.SYSTEM.DIHEDRAL>
0

>  <SCORE.SYSTEM.SOLV>
0

>  <SCORE.SYSTEM.norm>
0

>  <SCORE.heavy>
42

>  <SCORE.norm>
-0.219566

>  <RMSD>
9.634

$$$$
3c44_lig
 OpenBabel11021811463D
libRbt.so/2013.1/901 2013/11/27
 42 45  0  0  0  0  0  0  0  0999 V2000
   38.4478   40.7231  -17.1197 C   0  0  2  0  0  0  0  0  0  0  0  0
   38.6821   40.9214  -15.7170 O   0  0  0  0  0  0  0  0  0  0  0  0
   36.1538   41.7163  -12.5287 C   0  0  2  0  0  0  0  0  0  0  0  0
   35.2011   42.1750  -11.5061 N   0  0  0  0  0  0  0  0  0  0  0  0
   35.0800   39.2379  -16.1861 C   0  0  1  0  0  0  0  0  0  0  0  0
   31.8498   37.4161  -17.3778 C   0  0  1  0  0  0  0  0  0  0  0  0
   39.3337   39.5764  -17.6182 C   0  0  2  0  0  0  0  0  0  0  0  0
   39.1206   38.3630  -16.8163 N   0  0  0  0  0  0  0  0  0  0  0  0
   37.1951   42.8005  -12.8212 C   0  0  0  0  0  0  0  0  0  0  0  0
   34.4335   39.1166  -17.5668 C   0  0  2  0  0  0  0  0  0  0  0  0
   33.1672   39.7785  -17.5728 O   0  0  0  0  0  0  0  0  0  0  0  0
   30.7241   37.1576  -16.3710 C   0  0  2  0  0  0  0  0  0  0  0  0
   30.9244   35.8242  -15.7870 N   0  0  0  0  0  0  0  0  0  0  0  0
   40.8159   39.9554  -17.5671 C   0  0  1  0  0  0  0  0  0  0  0  0
   41.5880   38.9221  -18.1865 O   0  0  0  0  0  0  0  0  0  0  0  0
   38.2378   42.2017  -13.7710 C   0  0  2  0  0  0  0  0  0  0  0  0
   39.2236   43.2343  -14.1244 N   0  0  0  0  0  0  0  0  0  0  0  0
   34.2006   37.6077  -17.6098 C   0  0  2  0  0  0  0  0  0  0  0  0
   33.1237   37.2314  -16.7359 O   0  0  0  0  0  0  0  0  0  0  0  0
   29.3505   37.1987  -17.0535 C   0  0  1  0  0  0  0  0  0  0  0  0
   29.0207   38.5378  -17.4313 O   0  0  0  0  0  0  0  0  0  0  0  0
   41.0402   41.2749  -18.3079 C   0  0  2  0  0  0  0  0  0  0  0  0
   42.4038   41.6808  -18.1640 O   0  0  0  0  0  0  0  0  0  0  0  0
   37.6242   41.6412  -15.0601 C   0  0  2  0  0  0  0  0  0  0  0  0
   35.5179   37.1075  -17.0384 C   0  0  2  0  0  0  0  0  0  0  0  0
   35.9971   38.1292  -16.1373 O   0  0  0  0  0  0  0  0  0  0  0  0
   29.3311   36.3166  -18.3030 C   0  0  2  0  0  0  0  0  0  0  0  0
   29.4399   34.9473  -17.9037 O   0  0  0  0  0  0  0  0  0  0  0  0
   40.1190   42.3499  -17.7291 C   0  0  2  0  0  0  0  0  0  0  0  0
   38.7427   41.9361  -17.8371 O   0  0  0  0  0  0  0  0  0  0  0  0
   36.4172   40.7325  -14.8367 C   0  0  2  0  0  0  0  0  0  0  0  0
   35.7546   40.5046  -16.0913 O   0  0  0  0  0  0  0  0  0  0  0  0
   36.5107   36.8701  -18.1783 C   0  0  0  0  0  0  0  0  0  0  0  0
   36.0832   35.7408  -18.9430 O   0  0  0  0  0  0  0  0  0  0  0  0
   30.5052   36.7054  -19.2052 C   0  0  1  0  0  0  0  0  0  0  0  0
   31.7275   36.4977  -18.4756 O   0  0  0  0  0  0  0  0  0  0  0  0
   40.3437   43.6346  -18.5307 C   0  0  0  0  0  0  0  0  0  0  0  0
   39.7556   44.7806  -17.8224 O   0  0  0  0  0  0  0  0  0  0  0  0
   35.4394   41.3563  -13.8339 C   0  0  1  0  0  0  0  0  0  0  0  0
   34.3640   40.4519  -13.5721 O   0  0  0  0  0  0  0  0  0  0  0  0
   30.5445   35.8802  -20.4920 C   0  0  0  0  0  0  0  0  0  0  0  0
   30.8349   34.4786  -20.1592 N   0  0  0  0  0  0  0  0  0  0  0  0
  1  2  1  1  0  0  0
  1  7  1  0  0  0  0
  1 30  1  0  0  0  0
  3  4  1  1  0  0  0
  3  9  1  0  0  0  0
  3 39  1  0  0  0  0
  5 10  1  0  0  0  0
  5 26  1  0  0  0  0
  5 32  1  6  0  0  0
  6 12  1  0  0  0  0
  6 36  1  0  0  0  0
  6 19  1  1  0  0  0
  7  8  1  1  0  0  0
  7 14  1  0  0  0  0
  9 16  1  0  0  0  0
 10 11  1  1  0  0  0
 10 18  1  0  0  0  0
 12 13  1  6  0  0  0
 12 20  1  0  0  0  0
 14 15  1  6  0  0  0
 14 22  1  0  0  0  0
 16 17  1  6  0  0  0
 16 24  1  0  0  0  0
 18 19  1  1  0  0  0
 18 25  1  0  0  0  0
 20 21  1  6  0  0  0
 20 27  1  0  0  0  0
 22 23  1  1  0  0  0
 22 29  1  0  0  0  0
 24  2  1  1  0  0  0
 24 31  1  0  0  0  0
 25 26  1  0  0  0  0
 25 33  1  6  0  0  0
 27 28  1  1  0  0  0
 27 35  1  0  0  0  0
 29 30  1  0  0  0  0
 29 37  1  6  0  0  0
 31 32  1  6  0  0  0
 31 39  1  0  0  0  0
 33 34  1  0  0  0  0
 35 36  1  0  0  0  0
 35 41  1  6  0  0  0
 37 38  1  0  0  0  0
 39 40  1  1  0  0  0
 41 42  1  0  0  0  0
M  END
>  <CHROM.1>
-160.65030226,-179.40705351,-173.67482409,82.96628159,-159.73368335,-69.69087553
-165.66855390,150.55564982,-66.48100574,35.58840269,39.34467546,-16.78946277
-0.45214161,-0.35126528,-2.24973596

>  <Name>
3c44_lig

>  <RI>
0

>  <Rbt.Current_Directory>
/home/itssahil/PROJECTS/Mol_Feturizer/New_Systems/rnas/3c44

>  <Rbt.Executable>
rbdock ($Id: //depot/dev/client3/rdock/2013.1/src/exe/rbdock.cxx#4 $)

>  <Rbt.Library>
libRbt.so (2013.1, Build901 2013/11/27)

>  <Rbt.Parameter_File>
/export/apps/rDock/src/rDock_2013.1_src/data/scripts/dock_solv.prm

>  <Rbt.Receptor>
prm/pocket_docking_6.prm

>  <SCORE>
-13.6449

>  <SCORE.INTER>
-12.7658

>  <SCORE.INTER.CONST>
1

>  <SCORE.INTER.POLAR>
-1.88592

>  <SCORE.INTER.ROT>
9

>  <SCORE.INTER.SOLV>
12.1771

>  <SCORE.INTER.VDW>
-15.8831

>  <SCORE.INTER.norm>
-0.303947

>  <SCORE.INTRA>
-0.879176

>  <SCORE.INTRA.DIHEDRAL>
-3.861

>  <SCORE.INTRA.DIHEDRAL.0>
14.8538

>  <SCORE.INTRA.POLAR>
0

>  <SCORE.INTRA.POLAR.0>
0

>  <SCORE.INTRA.REPUL>
0

>  <SCORE.INTRA.REPUL.0>
0

>  <SCORE.INTRA.SOLV>
-0.499155

>  <SCORE.INTRA.SOLV.lig_0>
-100.951

>  <SCORE.INTRA.VDW>
1.3009

>  <SCORE.INTRA.VDW.0>
-5.71388

>  <SCORE.INTRA.norm>
-0.0209328

>  <SCORE.RESTR>
0

>  <SCORE.RESTR.CAVITY>
0

>  <SCORE.RESTR.norm>
0

>  <SCORE.SYSTEM>
0

>  <SCORE.SYSTEM.CONST>
0

>  <SCORE.SYSTEM.DIHEDRAL>
0

>  <SCORE.SYSTEM.SOLV>
0

>  <SCORE.SYSTEM.norm>
0

>  <SCORE.heavy>
42

>  <SCORE.norm>
-0.32488

>  <RMSD>
9.665

$$$$
3c44_lig
 OpenBabel11021811463D
libRbt.so/2013.1/901 2013/11/27
 42 45  0  0  0  0  0  0  0  0999 V2000
   35.3470   39.8875  -13.0899 C   0  0  2  0  0  0  0  0  0  0  0  0
   36.5510   39.1822  -13.4289 O   0  0  0  0  0  0  0  0  0  0  0  0
   37.6832   35.2309  -13.9720 C   0  0  2  0  0  0  0  0  0  0  0  0
   37.9673   33.7877  -13.9899 N   0  0  0  0  0  0  0  0  0  0  0  0
   33.9518   36.7625  -15.7108 C   0  0  1  0  0  0  0  0  0  0  0  0
   30.8283   35.0918  -17.2355 C   0  0  1  0  0  0  0  0  0  0  0  0
   35.3586   41.2572  -13.7767 C   0  0  2  0  0  0  0  0  0  0  0  0
   35.5602   41.1149  -15.2259 N   0  0  0  0  0  0  0  0  0  0  0  0
   38.0707   35.8405  -12.6217 C   0  0  0  0  0  0  0  0  0  0  0  0
   32.4956   37.2221  -15.7950 C   0  0  2  0  0  0  0  0  0  0  0  0
   31.6606   36.3385  -15.0441 O   0  0  0  0  0  0  0  0  0  0  0  0
   30.9095   33.5864  -16.9615 C   0  0  2  0  0  0  0  0  0  0  0  0
   31.5256   32.9377  -18.1271 N   0  0  0  0  0  0  0  0  0  0  0  0
   36.4571   42.1572  -13.2054 C   0  0  1  0  0  0  0  0  0  0  0  0
   36.3277   43.4693  -13.7610 O   0  0  0  0  0  0  0  0  0  0  0  0
   37.8959   37.3591  -12.7280 C   0  0  2  0  0  0  0  0  0  0  0  0
   38.2006   37.9761  -11.4282 N   0  0  0  0  0  0  0  0  0  0  0  0
   32.2400   36.9947  -17.2836 C   0  0  2  0  0  0  0  0  0  0  0  0
   32.1334   35.5918  -17.5758 O   0  0  0  0  0  0  0  0  0  0  0  0
   29.5141   32.9877  -16.7409 C   0  0  1  0  0  0  0  0  0  0  0  0
   28.9765   33.4225  -15.4891 O   0  0  0  0  0  0  0  0  0  0  0  0
   36.3274   42.2317  -11.6829 C   0  0  2  0  0  0  0  0  0  0  0  0
   37.4188   42.9825  -11.1440 O   0  0  0  0  0  0  0  0  0  0  0  0
   36.4811   37.7724  -13.1525 C   0  0  2  0  0  0  0  0  0  0  0  0
   33.5312   37.5403  -17.8729 C   0  0  2  0  0  0  0  0  0  0  0  0
   34.5616   37.3362  -16.8820 O   0  0  0  0  0  0  0  0  0  0  0  0
   28.5552   33.4023  -17.8582 C   0  0  2  0  0  0  0  0  0  0  0  0
   28.9712   32.7819  -19.0781 O   0  0  0  0  0  0  0  0  0  0  0  0
   36.3363   40.8183  -11.0985 C   0  0  2  0  0  0  0  0  0  0  0  0
   35.2608   40.0411  -11.6609 O   0  0  0  0  0  0  0  0  0  0  0  0
   35.9439   37.0154  -14.3654 C   0  0  2  0  0  0  0  0  0  0  0  0
   34.5345   37.2636  -14.4951 O   0  0  0  0  0  0  0  0  0  0  0  0
   33.3590   39.0276  -18.1888 C   0  0  0  0  0  0  0  0  0  0  0  0
   34.5301   39.5021  -18.8569 O   0  0  0  0  0  0  0  0  0  0  0  0
   28.5822   34.9267  -17.9972 C   0  0  1  0  0  0  0  0  0  0  0  0
   29.9235   35.3296  -18.3256 O   0  0  0  0  0  0  0  0  0  0  0  0
   36.1563   40.9413   -9.5833 C   0  0  0  0  0  0  0  0  0  0  0  0
   36.2966   39.6222   -8.9499 O   0  0  0  0  0  0  0  0  0  0  0  0
   36.2002   35.5098  -14.2295 C   0  0  1  0  0  0  0  0  0  0  0  0
   35.7709   34.8321  -15.4125 O   0  0  0  0  0  0  0  0  0  0  0  0
   27.6297   35.4258  -19.0844 C   0  0  0  0  0  0  0  0  0  0  0  0
   27.6814   36.8935  -19.1364 N   0  0  0  0  0  0  0  0  0  0  0  0
  1  2  1  1  0  0  0
  1  7  1  0  0  0  0
  1 30  1  0  0  0  0
  3  4  1  1  0  0  0
  3  9  1  0  0  0  0
  3 39  1  0  0  0  0
  5 10  1  0  0  0  0
  5 26  1  0  0  0  0
  5 32  1  1  0  0  0
  6 12  1  0  0  0  0
  6 36  1  0  0  0  0
  6 19  1  6  0  0  0
  7  8  1  6  0  0  0
  7 14  1  0  0  0  0
  9 16  1  0  0  0  0
 10 11  1  1  0  0  0
 10 18  1  0  0  0  0
 12 13  1  6  0  0  0
 12 20  1  0  0  0  0
 14 15  1  6  0  0  0
 14 22  1  0  0  0  0
 16 17  1  1  0  0  0
 16 24  1  0  0  0  0
 18 19  1  1  0  0  0
 18 25  1  0  0  0  0
 20 21  1  1  0  0  0
 20 27  1  0  0  0  0
 22 23  1  1  0  0  0
 22 29  1  0  0  0  0
 24  2  1  6  0  0  0
 24 31  1  0  0  0  0
 25 26  1  0  0  0  0
 25 33  1  1  0  0  0
 27 28  1  6  0  0  0
 27 35  1  0  0  0  0
 29 30  1  0  0  0  0
 29 37  1  1  0  0  0
 31 32  1  1  0  0  0
 31 39  1  0  0  0  0
 33 34  1  0  0  0  0
 35 36  1  0  0  0  0
 35 41  1  6  0  0  0
 37 38  1  0  0  0  0
 39 40  1  6  0  0  0
 41 42  1  0  0  0  0
M  END
>  <CHROM.1>
-163.75779406,-173.87087907,-155.24087689,79.79143104,-145.99482077,-174.58556152
-174.14116859,171.41415327,178.49072150,33.89129974,37.38547363,-15.05338342
0.60280367,-0.66538031,0.06951128

>  <Name>
3c44_lig

>  <RI>
0

>  <Rbt.Current_Directory>
/home/itssahil/PROJECTS/Mol_Feturizer/New_Systems/rnas/3c44

>  <Rbt.Executable>
rbdock ($Id: //depot/dev/client3/rdock/2013.1/src/exe/rbdock.cxx#4 $)

>  <Rbt.Library>
libRbt.so (2013.1, Build901 2013/11/27)

>  <Rbt.Parameter_File>
/export/apps/rDock/src/rDock_2013.1_src/data/scripts/dock_solv.prm

>  <Rbt.Receptor>
prm/pocket_docking_6.prm

>  <SCORE>
-7.74929

>  <SCORE.INTER>
-6.73383

>  <SCORE.INTER.CONST>
1

>  <SCORE.INTER.POLAR>
-0.773134

>  <SCORE.INTER.ROT>
9

>  <SCORE.INTER.SOLV>
12.1458

>  <SCORE.INTER.VDW>
-15.5607

>  <SCORE.INTER.norm>
-0.160329

>  <SCORE.INTRA>
-1.01966

>  <SCORE.INTRA.DIHEDRAL>
-3.83931

>  <SCORE.INTRA.DIHEDRAL.0>
14.8538

>  <SCORE.INTRA.POLAR>
0

>  <SCORE.INTRA.POLAR.0>
0

>  <SCORE.INTRA.REPUL>
0.00130279

>  <SCORE.INTRA.REPUL.0>
0

>  <SCORE.INTRA.SOLV>
-3.00048

>  <SCORE.INTRA.SOLV.lig_0>
-100.951

>  <SCORE.INTRA.VDW>
2.39372

>  <SCORE.INTRA.VDW.0>
-5.71388

>  <SCORE.INTRA.norm>
-0.0242777

>  <SCORE.RESTR>
0.00419799

>  <SCORE.RESTR.CAVITY>
0.00419799

>  <SCORE.RESTR.norm>
9.99521e-05

>  <SCORE.SYSTEM>
0

>  <SCORE.SYSTEM.CONST>
0

>  <SCORE.SYSTEM.DIHEDRAL>
0

>  <SCORE.SYSTEM.SOLV>
0

>  <SCORE.SYSTEM.norm>
0

>  <SCORE.heavy>
42

>  <SCORE.norm>
-0.184507

>  <RMSD>
9.735

$$$$
3c44_lig
 OpenBabel11021811463D
libRbt.so/2013.1/901 2013/11/27
 42 45  0  0  0  0  0  0  0  0999 V2000
   38.7839   43.0009  -13.7528 C   0  0  2  0  0  0  0  0  0  0  0  0
   40.1067   42.4528  -13.6460 O   0  0  0  0  0  0  0  0  0  0  0  0
   41.2208   38.5305  -12.8951 C   0  0  2  0  0  0  0  0  0  0  0  0
   41.5483   37.1745  -12.4281 N   0  0  0  0  0  0  0  0  0  0  0  0
   37.1136   39.5239  -14.1156 C   0  0  1  0  0  0  0  0  0  0  0  0
   33.7978   37.0030  -14.9084 C   0  0  1  0  0  0  0  0  0  0  0  0
   38.8609   44.3626  -14.4512 C   0  0  2  0  0  0  0  0  0  0  0  0
   39.5493   44.2496  -15.7452 N   0  0  0  0  0  0  0  0  0  0  0  0
   41.9131   39.5830  -12.0244 C   0  0  0  0  0  0  0  0  0  0  0  0
   35.6657   39.7122  -13.6604 C   0  0  2  0  0  0  0  0  0  0  0  0
   35.4148   38.9269  -12.4933 O   0  0  0  0  0  0  0  0  0  0  0  0
   33.9634   35.4984  -14.6707 C   0  0  2  0  0  0  0  0  0  0  0  0
   34.9636   34.9888  -15.6189 N   0  0  0  0  0  0  0  0  0  0  0  0
   39.5911   45.3920  -13.5850 C   0  0  1  0  0  0  0  0  0  0  0  0
   39.4993   46.6787  -14.2042 O   0  0  0  0  0  0  0  0  0  0  0  0
   41.6567   40.9545  -12.6579 C   0  0  2  0  0  0  0  0  0  0  0  0
   42.2559   41.9996  -11.8143 N   0  0  0  0  0  0  0  0  0  0  0  0
   34.9394   39.0789  -14.8454 C   0  0  2  0  0  0  0  0  0  0  0  0
   35.0805   37.6489  -14.8268 O   0  0  0  0  0  0  0  0  0  0  0  0
   32.6413   34.7533  -14.8966 C   0  0  1  0  0  0  0  0  0  0  0  0
   31.7144   35.0527  -13.8498 O   0  0  0  0  0  0  0  0  0  0  0  0
   38.9536   45.4468  -12.1955 C   0  0  2  0  0  0  0  0  0  0  0  0
   39.7056   46.3273  -11.3563 O   0  0  0  0  0  0  0  0  0  0  0  0
   40.1653   41.2615  -12.8420 C   0  0  2  0  0  0  0  0  0  0  0  0
   35.7419   39.6540  -16.0018 C   0  0  2  0  0  0  0  0  0  0  0  0
   37.0829   39.8717  -15.5122 O   0  0  0  0  0  0  0  0  0  0  0  0
   32.0129   35.1426  -16.2357 C   0  0  2  0  0  0  0  0  0  0  0  0
   32.8359   34.6449  -17.2945 O   0  0  0  0  0  0  0  0  0  0  0  0
   38.9350   44.0446  -11.5851 C   0  0  2  0  0  0  0  0  0  0  0  0
   38.2087   43.1398  -12.4402 O   0  0  0  0  0  0  0  0  0  0  0  0
   39.3690   40.1346  -13.4967 C   0  0  2  0  0  0  0  0  0  0  0  0
   37.9640   40.4012  -13.3566 O   0  0  0  0  0  0  0  0  0  0  0  0
   35.1045   40.9671  -16.4614 C   0  0  0  0  0  0  0  0  0  0  0  0
   36.0656   41.7171  -17.2075 O   0  0  0  0  0  0  0  0  0  0  0  0
   31.9081   36.6681  -16.3117 C   0  0  1  0  0  0  0  0  0  0  0  0
   33.2326   37.2203  -16.2110 O   0  0  0  0  0  0  0  0  0  0  0  0
   38.2471   44.1411  -10.2210 C   0  0  0  0  0  0  0  0  0  0  0  0
   39.0280   45.0032   -9.3221 O   0  0  0  0  0  0  0  0  0  0  0  0
   39.7111   38.7813  -12.8622 C   0  0  1  0  0  0  0  0  0  0  0  0
   39.0236   37.7322  -13.5475 O   0  0  0  0  0  0  0  0  0  0  0  0
   31.2674   37.1400  -17.6176 C   0  0  0  0  0  0  0  0  0  0  0  0
   30.9527   38.5716  -17.5123 N   0  0  0  0  0  0  0  0  0  0  0  0
  1  2  1  1  0  0  0
  1  7  1  0  0  0  0
  1 30  1  0  0  0  0
  3  4  1  1  0  0  0
  3  9  1  0  0  0  0
  3 39  1  0  0  0  0
  5 10  1  0  0  0  0
  5 26  1  0  0  0  0
  5 32  1  1  0  0  0
  6 12  1  0  0  0  0
  6 36  1  0  0  0  0
  6 19  1  6  0  0  0
  7  8  1  6  0  0  0
  7 14  1  0  0  0  0
  9 16  1  0  0  0  0
 10 11  1  1  0  0  0
 10 18  1  0  0  0  0
 12 13  1  6  0  0  0
 12 20  1  0  0  0  0
 14 15  1  6  0  0  0
 14 22  1  0  0  0  0
 16 17  1  1  0  0  0
 16 24  1  0  0  0  0
 18 19  1  1  0  0  0
 18 25  1  0  0  0  0
 20 21  1  1  0  0  0
 20 27  1  0  0  0  0
 22 23  1  1  0  0  0
 22 29  1  0  0  0  0
 24  2  1  6  0  0  0
 24 31  1  0  0  0  0
 25 26  1  0  0  0  0
 25 33  1  1  0  0  0
 27 28  1  6  0  0  0
 27 35  1  0  0  0  0
 29 30  1  0  0  0  0
 29 37  1  1  0  0  0
 31 32  1  1  0  0  0
 31 39  1  0  0  0  0
 33 34  1  0  0  0  0
 35 36  1  0  0  0  0
 35 41  1  6  0  0  0
 37 38  1  0  0  0  0
 39 40  1  6  0  0  0
 41 42  1  0  0  0  0
M  END
>  <CHROM.1>
171.93153075,168.19941495,-171.37458655,127.13499602,-171.22556767,160.78820054
-63.15214307,170.58018731,168.73657076,37.02856319,40.13183101,-14.06046478
0.74424253,-0.49082599,-0.03374144

>  <Name>
3c44_lig

>  <RI>
224

>  <Rbt.Current_Directory>
/home/itssahil/PROJECTS/Mol_Feturizer/New_Systems/rnas/3c44

>  <Rbt.Executable>
rbdock ($Id: //depot/dev/client3/rdock/2013.1/src/exe/rbdock.cxx#4 $)

>  <Rbt.Library>
libRbt.so (2013.1, Build901 2013/11/27)

>  <Rbt.Parameter_File>
/export/apps/rDock/src/rDock_2013.1_src/data/scripts/dock_solv.prm

>  <Rbt.Receptor>
prm/pocket_docking_3.prm

>  <SCORE>
-0.64808

>  <SCORE.INTER>
-1.96795

>  <SCORE.INTER.CONST>
1

>  <SCORE.INTER.POLAR>
-0.714487

>  <SCORE.INTER.ROT>
9

>  <SCORE.INTER.SOLV>
21.9788

>  <SCORE.INTER.VDW>
-15.8566

>  <SCORE.INTER.norm>
-0.046856

>  <SCORE.INTRA>
-1.07302

>  <SCORE.INTRA.DIHEDRAL>
-4.17861

>  <SCORE.INTRA.DIHEDRAL.0>
14.8538

>  <SCORE.INTRA.POLAR>
0

>  <SCORE.INTRA.POLAR.0>
0

>  <SCORE.INTRA.REPUL>
0.0751417

>  <SCORE.INTRA.REPUL.0>
0

>  <SCORE.INTRA.SOLV>
-5.34133

>  <SCORE.INTRA.SOLV.lig_0>
-100.951

>  <SCORE.INTRA.VDW>
3.31124

>  <SCORE.INTRA.VDW.0>
-5.71388

>  <SCORE.INTRA.norm>
-0.0255481

>  <SCORE.RESTR>
2.39289

>  <SCORE.RESTR.CAVITY>
2.39289

>  <SCORE.RESTR.norm>
0.0569736

>  <SCORE.SYSTEM>
0

>  <SCORE.SYSTEM.CONST>
0

>  <SCORE.SYSTEM.DIHEDRAL>
0

>  <SCORE.SYSTEM.SOLV>
0

>  <SCORE.SYSTEM.norm>
0

>  <SCORE.heavy>
42

>  <SCORE.norm>
-0.0154305

>  <RMSD>
9.758

$$$$
3c44_lig
 OpenBabel11021811463D
libRbt.so/2013.1/901 2013/11/27
 42 45  0  0  0  0  0  0  0  0999 V2000
   38.7040   43.5920  -13.4800 C   0  0  2  0  0  0  0  0  0  0  0  0
   39.0948   43.3487  -12.1199 O   0  0  0  0  0  0  0  0  0  0  0  0
   37.0530   41.0743   -9.3186 C   0  0  2  0  0  0  0  0  0  0  0  0
   36.1956   40.4351   -8.3085 N   0  0  0  0  0  0  0  0  0  0  0  0
   36.3867   41.0516  -13.8483 C   0  0  1  0  0  0  0  0  0  0  0  0
   34.6116   38.1333  -16.3882 C   0  0  1  0  0  0  0  0  0  0  0  0
   39.9415   43.5065  -14.3796 C   0  0  2  0  0  0  0  0  0  0  0  0
   40.6357   42.2239  -14.1951 N   0  0  0  0  0  0  0  0  0  0  0  0
   37.5725   42.4223   -8.8104 C   0  0  0  0  0  0  0  0  0  0  0  0
   35.1028   41.2158  -14.6631 C   0  0  2  0  0  0  0  0  0  0  0  0
   33.9938   40.6775  -13.9405 O   0  0  0  0  0  0  0  0  0  0  0  0
   35.5037   37.8087  -17.5909 C   0  0  2  0  0  0  0  0  0  0  0  0
   36.0418   39.0695  -18.1200 N   0  0  0  0  0  0  0  0  0  0  0  0
   40.9185   44.6494  -14.0926 C   0  0  1  0  0  0  0  0  0  0  0  0
   41.9744   44.6202  -15.0576 O   0  0  0  0  0  0  0  0  0  0  0  0
   38.5751   42.9540   -9.8400 C   0  0  2  0  0  0  0  0  0  0  0  0
   39.0513   44.2793   -9.4159 N   0  0  0  0  0  0  0  0  0  0  0  0
   35.4224   40.2905  -15.8355 C   0  0  2  0  0  0  0  0  0  0  0  0
   35.3531   38.9127  -15.4333 O   0  0  0  0  0  0  0  0  0  0  0  0
   34.7068   37.1065  -18.6981 C   0  0  1  0  0  0  0  0  0  0  0  0
   34.3628   35.7770  -18.2991 O   0  0  0  0  0  0  0  0  0  0  0  0
   40.1872   45.9906  -14.1755 C   0  0  2  0  0  0  0  0  0  0  0  0
   41.0756   47.0462  -13.7994 O   0  0  0  0  0  0  0  0  0  0  0  0
   37.9837   43.0685  -11.2505 C   0  0  2  0  0  0  0  0  0  0  0  0
   36.8705   40.6704  -16.1016 C   0  0  2  0  0  0  0  0  0  0  0  0
   37.4302   41.0928  -14.8392 O   0  0  0  0  0  0  0  0  0  0  0  0
   33.4216   37.8711  -19.0196 C   0  0  2  0  0  0  0  0  0  0  0  0
   33.7663   39.1193  -19.6274 O   0  0  0  0  0  0  0  0  0  0  0  0
   38.9800   45.9743  -13.2365 C   0  0  2  0  0  0  0  0  0  0  0  0
   38.0941   44.8921  -13.5844 O   0  0  0  0  0  0  0  0  0  0  0  0
   37.2375   41.8217  -11.7210 C   0  0  2  0  0  0  0  0  0  0  0  0
   36.4891   42.1343  -12.9071 O   0  0  0  0  0  0  0  0  0  0  0  0
   36.9200   41.8016  -17.1309 C   0  0  0  0  0  0  0  0  0  0  0  0
   38.2796   42.0326  -17.5065 O   0  0  0  0  0  0  0  0  0  0  0  0
   32.6437   38.1051  -17.7219 C   0  0  1  0  0  0  0  0  0  0  0  0
   33.4668   38.8792  -16.8316 O   0  0  0  0  0  0  0  0  0  0  0  0
   38.2550   47.3139  -13.3893 C   0  0  0  0  0  0  0  0  0  0  0  0
   39.0345   48.3850  -12.7521 O   0  0  0  0  0  0  0  0  0  0  0  0
   36.2950   41.3022  -10.6288 C   0  0  1  0  0  0  0  0  0  0  0  0
   35.6749   40.0871  -11.0555 O   0  0  0  0  0  0  0  0  0  0  0  0
   31.3291   38.8487  -17.9611 C   0  0  0  0  0  0  0  0  0  0  0  0
   30.5432   38.8538  -16.7193 N   0  0  0  0  0  0  0  0  0  0  0  0
  1  2  1  1  0  0  0
  1  7  1  0  0  0  0
  1 30  1  0  0  0  0
  3  4  1  1  0  0  0
  3  9  1  0  0  0  0
  3 39  1  0  0  0  0
  5 10  1  0  0  0  0
  5 26  1  0  0  0  0
  5 32  1  1  0  0  0
  6 12  1  0  0  0  0
  6 36  1  0  0  0  0
  6 19  1  1  0  0  0
  7  8  1  1  0  0  0
  7 14  1  0  0  0  0
  9 16  1  0  0  0  0
 10 11  1  1  0  0  0
 10 18  1  0  0  0  0
 12 13  1  6  0  0  0
 12 20  1  0  0  0  0
 14 15  1  6  0  0  0
 14 22  1  0  0  0  0
 16 17  1  1  0  0  0
 16 24  1  0  0  0  0
 18 19  1  1  0  0  0
 18 25  1  0  0  0  0
 20 21  1  1  0  0  0
 20 27  1  0  0  0  0
 22 23  1  1  0  0  0
 22 29  1  0  0  0  0
 24  2  1  6  0  0  0
 24 31  1  0  0  0  0
 25 26  1  0  0  0  0
 25 33  1  6  0  0  0
 27 28  1  1  0  0  0
 27 35  1  0  0  0  0
 29 30  1  0  0  0  0
 29 37  1  6  0  0  0
 31 32  1  6  0  0  0
 31 39  1  0  0  0  0
 33 34  1  0  0  0  0
 35 36  1  0  0  0  0
 35 41  1  6  0  0  0
 37 38  1  0  0  0  0
 39 40  1  6  0  0  0
 41 42  1  0  0  0  0
M  END
>  <CHROM.1>
-165.02445631,152.75926888,79.18267867,133.66789243,-175.42135699,-172.44667308
-72.82755130,146.20793402,171.27151386,36.79744972,41.65151453,-14.39959864
-0.61599999,-0.83507887,-1.63948844

>  <Name>
3c44_lig

>  <RI>
0

>  <Rbt.Current_Directory>
/home/itssahil/PROJECTS/Mol_Feturizer/New_Systems/rnas/3c44

>  <Rbt.Executable>
rbdock ($Id: //depot/dev/client3/rdock/2013.1/src/exe/rbdock.cxx#4 $)

>  <Rbt.Library>
libRbt.so (2013.1, Build901 2013/11/27)

>  <Rbt.Parameter_File>
/export/apps/rDock/src/rDock_2013.1_src/data/scripts/dock_solv.prm

>  <Rbt.Receptor>
prm/pocket_docking_7.prm

>  <SCORE>
-16.9666

>  <SCORE.INTER>
-21.2377

>  <SCORE.INTER.CONST>
1

>  <SCORE.INTER.POLAR>
-2.95583

>  <SCORE.INTER.ROT>
9

>  <SCORE.INTER.SOLV>
16.9638

>  <SCORE.INTER.VDW>
-19.5603

>  <SCORE.INTER.norm>
-0.505659

>  <SCORE.INTRA>
4.27112

>  <SCORE.INTRA.DIHEDRAL>
2.55978

>  <SCORE.INTRA.DIHEDRAL.0>
14.8538

>  <SCORE.INTRA.POLAR>
0

>  <SCORE.INTRA.POLAR.0>
0

>  <SCORE.INTRA.REPUL>
0

>  <SCORE.INTRA.REPUL.0>
0

>  <SCORE.INTRA.SOLV>
-0.918134

>  <SCORE.INTRA.SOLV.lig_0>
-100.951

>  <SCORE.INTRA.VDW>
3.4503

>  <SCORE.INTRA.VDW.0>
-5.71388

>  <SCORE.INTRA.norm>
0.101693

>  <SCORE.RESTR>
0

>  <SCORE.RESTR.CAVITY>
0

>  <SCORE.RESTR.norm>
0

>  <SCORE.SYSTEM>
0

>  <SCORE.SYSTEM.CONST>
0

>  <SCORE.SYSTEM.DIHEDRAL>
0

>  <SCORE.SYSTEM.SOLV>
0

>  <SCORE.SYSTEM.norm>
0

>  <SCORE.heavy>
42

>  <SCORE.norm>
-0.403966

>  <RMSD>
9.799

$$$$
3c44_lig
 OpenBabel11021811463D
libRbt.so/2013.1/901 2013/11/27
 42 45  0  0  0  0  0  0  0  0999 V2000
   43.0395   40.1805  -17.7163 C   0  0  2  0  0  0  0  0  0  0  0  0
   43.7335   40.9761  -16.7430 O   0  0  0  0  0  0  0  0  0  0  0  0
   42.5541   44.5270  -14.9571 C   0  0  2  0  0  0  0  0  0  0  0  0
   42.1690   45.8764  -14.5158 N   0  0  0  0  0  0  0  0  0  0  0  0
   40.0033   41.1447  -16.9587 C   0  0  1  0  0  0  0  0  0  0  0  0
   36.7218   38.8077  -16.0398 C   0  0  1  0  0  0  0  0  0  0  0  0
   43.4520   38.7141  -17.5507 C   0  0  2  0  0  0  0  0  0  0  0  0
   43.2350   38.2616  -16.1690 N   0  0  0  0  0  0  0  0  0  0  0  0
   43.9585   44.5392  -15.5675 C   0  0  0  0  0  0  0  0  0  0  0  0
   38.8753   41.1425  -17.9914 C   0  0  2  0  0  0  0  0  0  0  0  0
   37.9890   42.2368  -17.7488 O   0  0  0  0  0  0  0  0  0  0  0  0
   35.2993   38.9064  -16.6007 C   0  0  2  0  0  0  0  0  0  0  0  0
   34.6923   40.1488  -16.1035 N   0  0  0  0  0  0  0  0  0  0  0  0
   44.9226   38.5044  -17.9201 C   0  0  1  0  0  0  0  0  0  0  0  0
   45.2176   37.1043  -17.9034 O   0  0  0  0  0  0  0  0  0  0  0  0
   44.3531   43.0875  -15.8589 C   0  0  2  0  0  0  0  0  0  0  0  0
   45.6746   43.0628  -16.5040 N   0  0  0  0  0  0  0  0  0  0  0  0
   38.1723   39.8438  -17.6015 C   0  0  2  0  0  0  0  0  0  0  0  0
   37.4539   40.0019  -16.3670 O   0  0  0  0  0  0  0  0  0  0  0  0
   34.4411   37.7187  -16.1460 C   0  0  1  0  0  0  0  0  0  0  0  0
   34.8645   36.5184  -16.7977 O   0  0  0  0  0  0  0  0  0  0  0  0
   45.1924   39.0669  -19.3168 C   0  0  2  0  0  0  0  0  0  0  0  0
   46.5879   38.9686  -19.6131 O   0  0  0  0  0  0  0  0  0  0  0  0
   43.3478   42.3616  -16.7617 C   0  0  2  0  0  0  0  0  0  0  0  0
   39.3714   38.9355  -17.3794 C   0  0  2  0  0  0  0  0  0  0  0  0
   40.4599   39.7794  -16.9455 O   0  0  0  0  0  0  0  0  0  0  0  0
   34.5390   37.5172  -14.6329 C   0  0  2  0  0  0  0  0  0  0  0  0
   33.9122   38.6236  -13.9778 O   0  0  0  0  0  0  0  0  0  0  0  0
   44.7562   40.5318  -19.3717 C   0  0  2  0  0  0  0  0  0  0  0  0
   43.3583   40.6471  -19.0406 O   0  0  0  0  0  0  0  0  0  0  0  0
   41.8910   42.5174  -16.3304 C   0  0  2  0  0  0  0  0  0  0  0  0
   41.0308   42.0564  -17.3850 O   0  0  0  0  0  0  0  0  0  0  0  0
   39.7180   38.2199  -18.6868 C   0  0  0  0  0  0  0  0  0  0  0  0
   40.7989   37.3147  -18.4518 O   0  0  0  0  0  0  0  0  0  0  0  0
   36.0153   37.4280  -14.2371 C   0  0  1  0  0  0  0  0  0  0  0  0
   36.6617   38.6570  -14.6125 O   0  0  0  0  0  0  0  0  0  0  0  0
   44.9998   41.0357  -20.7966 C   0  0  0  0  0  0  0  0  0  0  0  0
   46.4432   41.1247  -21.0604 O   0  0  0  0  0  0  0  0  0  0  0  0
   41.5717   43.9792  -15.9955 C   0  0  1  0  0  0  0  0  0  0  0  0
   40.2319   44.0881  -15.5098 O   0  0  0  0  0  0  0  0  0  0  0  0
   36.1996   37.2042  -12.7357 C   0  0  0  0  0  0  0  0  0  0  0  0
   35.8070   38.4222  -12.0133 N   0  0  0  0  0  0  0  0  0  0  0  0
  1  2  1  1  0  0  0
  1  7  1  0  0  0  0
  1 30  1  0  0  0  0
  3  4  1  6  0  0  0
  3  9  1  0  0  0  0
  3 39  1  0  0  0  0
  5 10  1  0  0  0  0
  5 26  1  0  0  0  0
  5 32  1  6  0  0  0
  6 12  1  0  0  0  0
  6 36  1  0  0  0  0
  6 19  1  1  0  0  0
  7  8  1  1  0  0  0
  7 14  1  0  0  0  0
  9 16  1  0  0  0  0
 10 11  1  1  0  0  0
 10 18  1  0  0  0  0
 12 13  1  1  0  0  0
 12 20  1  0  0  0  0
 14 15  1  6  0  0  0
 14 22  1  0  0  0  0
 16 17  1  6  0  0  0
 16 24  1  0  0  0  0
 18 19  1  1  0  0  0
 18 25  1  0  0  0  0
 20 21  1  6  0  0  0
 20 27  1  0  0  0  0
 22 23  1  1  0  0  0
 22 29  1  0  0  0  0
 24  2  1  1  0  0  0
 24 31  1  0  0  0  0
 25 26  1  0  0  0  0
 25 33  1  6  0  0  0
 27 28  1  1  0  0  0
 27 35  1  0  0  0  0
 29 30  1  0  0  0  0
 29 37  1  6  0  0  0
 31 32  1  6  0  0  0
 31 39  1  0  0  0  0
 33 34  1  0  0  0  0
 35 36  1  0  0  0  0
 35 41  1  1  0  0  0
 37 38  1  0  0  0  0
 39 40  1  1  0  0  0
 41 42  1  0  0  0  0
M  END
>  <CHROM.1>
-176.26564611,158.82140397,-92.36372090,176.34592459,-169.94509350,-176.88499684
-69.07503829,130.99363611,-69.68247379,40.57120078,40.21489532,-16.79986089
-0.12857581,-0.39847532,-2.72438271

>  <Name>
3c44_lig

>  <RI>
224

>  <Rbt.Current_Directory>
/home/itssahil/PROJECTS/Mol_Feturizer/New_Systems/rnas/3c44

>  <Rbt.Executable>
rbdock ($Id: //depot/dev/client3/rdock/2013.1/src/exe/rbdock.cxx#4 $)

>  <Rbt.Library>
libRbt.so (2013.1, Build901 2013/11/27)

>  <Rbt.Parameter_File>
/export/apps/rDock/src/rDock_2013.1_src/data/scripts/dock_solv.prm

>  <Rbt.Receptor>
prm/pocket_docking_8.prm

>  <SCORE>
-8.35641

>  <SCORE.INTER>
-9.11606

>  <SCORE.INTER.CONST>
1

>  <SCORE.INTER.POLAR>
-2.38723

>  <SCORE.INTER.ROT>
9

>  <SCORE.INTER.SOLV>
16.7064

>  <SCORE.INTER.VDW>
-13.2887

>  <SCORE.INTER.norm>
-0.217049

>  <SCORE.INTRA>
0.759653

>  <SCORE.INTRA.DIHEDRAL>
-0.499504

>  <SCORE.INTRA.DIHEDRAL.0>
14.8538

>  <SCORE.INTRA.POLAR>
0

>  <SCORE.INTRA.POLAR.0>
0

>  <SCORE.INTRA.REPUL>
0

>  <SCORE.INTRA.REPUL.0>
0

>  <SCORE.INTRA.SOLV>
-0.801014

>  <SCORE.INTRA.SOLV.lig_0>
-100.951

>  <SCORE.INTRA.VDW>
1.40991

>  <SCORE.INTRA.VDW.0>
-5.71388

>  <SCORE.INTRA.norm>
0.018087

>  <SCORE.RESTR>
0

>  <SCORE.RESTR.CAVITY>
0

>  <SCORE.RESTR.norm>
0

>  <SCORE.SYSTEM>
0

>  <SCORE.SYSTEM.CONST>
0

>  <SCORE.SYSTEM.DIHEDRAL>
0

>  <SCORE.SYSTEM.SOLV>
0

>  <SCORE.SYSTEM.norm>
0

>  <SCORE.heavy>
42

>  <SCORE.norm>
-0.198962

>  <RMSD>
9.901

$$$$
3c44_lig
 OpenBabel11021811463D
libRbt.so/2013.1/901 2013/11/27
 42 45  0  0  0  0  0  0  0  0999 V2000
   38.8393   43.5166  -13.5665 C   0  0  2  0  0  0  0  0  0  0  0  0
   39.0944   43.3428  -12.1642 O   0  0  0  0  0  0  0  0  0  0  0  0
   36.8297   41.4604   -9.2457 C   0  0  2  0  0  0  0  0  0  0  0  0
   35.8849   40.9515   -8.2397 N   0  0  0  0  0  0  0  0  0  0  0  0
   36.3354   40.5545  -13.5620 C   0  0  1  0  0  0  0  0  0  0  0  0
   34.0544   37.1692  -14.7852 C   0  0  1  0  0  0  0  0  0  0  0  0
   40.1705   43.4913  -14.3248 C   0  0  2  0  0  0  0  0  0  0  0  0
   40.9246   42.2670  -14.0188 N   0  0  0  0  0  0  0  0  0  0  0  0
   37.2221   42.9076   -8.9342 C   0  0  0  0  0  0  0  0  0  0  0  0
   34.9018   40.5877  -14.0937 C   0  0  2  0  0  0  0  0  0  0  0  0
   33.9802   40.3490  -13.0281 O   0  0  0  0  0  0  0  0  0  0  0  0
   33.9946   35.9431  -13.8682 C   0  0  2  0  0  0  0  0  0  0  0  0
   35.3664   35.4657  -13.6460 N   0  0  0  0  0  0  0  0  0  0  0  0
   41.0318   44.7084  -13.9782 C   0  0  1  0  0  0  0  0  0  0  0  0
   42.1865   44.7244  -14.8231 O   0  0  0  0  0  0  0  0  0  0  0  0
   38.3182   43.3171   -9.9236 C   0  0  2  0  0  0  0  0  0  0  0  0
   38.6788   44.7244   -9.6949 N   0  0  0  0  0  0  0  0  0  0  0  0
   34.9354   39.3587  -15.0000 C   0  0  2  0  0  0  0  0  0  0  0  0
   34.9435   38.1501  -14.2227 O   0  0  0  0  0  0  0  0  0  0  0  0
   33.1740   34.8143  -14.5057 C   0  0  1  0  0  0  0  0  0  0  0  0
   31.7857   35.1564  -14.5260 O   0  0  0  0  0  0  0  0  0  0  0  0
   40.2261   45.9916  -14.1894 C   0  0  2  0  0  0  0  0  0  0  0  0
   40.9956   47.1180  -13.7606 O   0  0  0  0  0  0  0  0  0  0  0  0
   37.8991   43.1452  -11.3890 C   0  0  2  0  0  0  0  0  0  0  0  0
   36.2892   39.5434  -15.6672 C   0  0  2  0  0  0  0  0  0  0  0  0
   37.1265   40.2483  -14.7251 O   0  0  0  0  0  0  0  0  0  0  0  0
   33.6341   34.5421  -15.9389 C   0  0  2  0  0  0  0  0  0  0  0  0
   34.9522   33.9876  -15.9036 O   0  0  0  0  0  0  0  0  0  0  0  0
   38.9273   45.9188  -13.3849 C   0  0  2  0  0  0  0  0  0  0  0  0
   38.1590   44.7667  -13.7845 O   0  0  0  0  0  0  0  0  0  0  0  0
   37.2729   41.7891  -11.7074 C   0  0  2  0  0  0  0  0  0  0  0  0
   36.6619   41.8406  -13.0069 O   0  0  0  0  0  0  0  0  0  0  0  0
   36.1163   40.3472  -16.9577 C   0  0  0  0  0  0  0  0  0  0  0  0
   35.7568   41.6905  -16.6271 O   0  0  0  0  0  0  0  0  0  0  0  0
   33.6282   35.8577  -16.7219 C   0  0  1  0  0  0  0  0  0  0  0  0
   34.5337   36.7729  -16.0801 O   0  0  0  0  0  0  0  0  0  0  0  0
   38.1355   47.1987  -13.6648 C   0  0  0  0  0  0  0  0  0  0  0  0
   38.8140   48.3540  -13.0600 O   0  0  0  0  0  0  0  0  0  0  0  0
   36.2282   41.4064  -10.6524 C   0  0  1  0  0  0  0  0  0  0  0  0
   35.7203   40.0973  -10.9196 O   0  0  0  0  0  0  0  0  0  0  0  0
   34.0576   35.6672  -18.1771 C   0  0  0  0  0  0  0  0  0  0  0  0
   33.9188   36.9428  -18.8934 N   0  0  0  0  0  0  0  0  0  0  0  0
  1  2  1  1  0  0  0
  1  7  1  0  0  0  0
  1 30  1  0  0  0  0
  3  4  1  1  0  0  0
  3  9  1  0  0  0  0
  3 39  1  0  0  0  0
  5 10  1  0  0  0  0
  5 26  1  0  0  0  0
  5 32  1  6  0  0  0
  6 12  1  0  0  0  0
  6 36  1  0  0  0  0
  6 19  1  1  0  0  0
  7  8  1  1  0  0  0
  7 14  1  0  0  0  0
  9 16  1  0  0  0  0
 10 11  1  1  0  0  0
 10 18  1  0  0  0  0
 12 13  1  6  0  0  0
 12 20  1  0  0  0  0
 14 15  1  6  0  0  0
 14 22  1  0  0  0  0
 16 17  1  6  0  0  0
 16 24  1  0  0  0  0
 18 19  1  1  0  0  0
 18 25  1  0  0  0  0
 20 21  1  6  0  0  0
 20 27  1  0  0  0  0
 22 23  1  1  0  0  0
 22 29  1  0  0  0  0
 24  2  1  6  0  0  0
 24 31  1  0  0  0  0
 25 26  1  0  0  0  0
 25 33  1  6  0  0  0
 27 28  1  1  0  0  0
 27 35  1  0  0  0  0
 29 30  1  0  0  0  0
 29 37  1  6  0  0  0
 31 32  1  6  0  0  0
 31 39  1  0  0  0  0
 33 34  1  0  0  0  0
 35 36  1  0  0  0  0
 35 41  1  6  0  0  0
 37 38  1  0  0  0  0
 39 40  1  6  0  0  0
 41 42  1  0  0  0  0
M  END
>  <CHROM.1>
-170.94220041,132.24210495,-175.11415514,137.14353020,-166.76587307,68.93327736
-69.25663910,165.18847506,175.22368775,36.71115957,40.88218452,-13.72162083
-0.49346396,-0.97636875,-1.83816793

>  <Name>
3c44_lig

>  <RI>
0

>  <Rbt.Current_Directory>
/home/itssahil/PROJECTS/Mol_Feturizer/New_Systems/rnas/3c44

>  <Rbt.Executable>
rbdock ($Id: //depot/dev/client3/rdock/2013.1/src/exe/rbdock.cxx#4 $)

>  <Rbt.Library>
libRbt.so (2013.1, Build901 2013/11/27)

>  <Rbt.Parameter_File>
/export/apps/rDock/src/rDock_2013.1_src/data/scripts/dock_solv.prm

>  <Rbt.Receptor>
prm/pocket_docking_7.prm

>  <SCORE>
-15.7837

>  <SCORE.INTER>
-16.6809

>  <SCORE.INTER.CONST>
1

>  <SCORE.INTER.POLAR>
-1.84446

>  <SCORE.INTER.ROT>
9

>  <SCORE.INTER.SOLV>
12.06

>  <SCORE.INTER.VDW>
-18.5924

>  <SCORE.INTER.norm>
-0.397165

>  <SCORE.INTRA>
0.897261

>  <SCORE.INTRA.DIHEDRAL>
0.302264

>  <SCORE.INTRA.DIHEDRAL.0>
14.8538

>  <SCORE.INTRA.POLAR>
0

>  <SCORE.INTRA.POLAR.0>
0

>  <SCORE.INTRA.REPUL>
0.144965

>  <SCORE.INTRA.REPUL.0>
0

>  <SCORE.INTRA.SOLV>
-4.06813

>  <SCORE.INTRA.SOLV.lig_0>
-100.951

>  <SCORE.INTRA.VDW>
2.05537

>  <SCORE.INTRA.VDW.0>
-5.71388

>  <SCORE.INTRA.norm>
0.0213634

>  <SCORE.RESTR>
0

>  <SCORE.RESTR.CAVITY>
0

>  <SCORE.RESTR.norm>
0

>  <SCORE.SYSTEM>
0

>  <SCORE.SYSTEM.CONST>
0

>  <SCORE.SYSTEM.DIHEDRAL>
0

>  <SCORE.SYSTEM.SOLV>
0

>  <SCORE.SYSTEM.norm>
0

>  <SCORE.heavy>
42

>  <SCORE.norm>
-0.375801

>  <RMSD>
9.914

$$$$
3c44_lig
 OpenBabel11021811463D
libRbt.so/2013.1/901 2013/11/27
 42 45  0  0  0  0  0  0  0  0999 V2000
   38.4648   43.6412  -13.8689 C   0  0  2  0  0  0  0  0  0  0  0  0
   38.8711   43.3485  -12.5231 O   0  0  0  0  0  0  0  0  0  0  0  0
   36.9575   41.4673   -9.3626 C   0  0  2  0  0  0  0  0  0  0  0  0
   36.1311   40.9550   -8.2587 N   0  0  0  0  0  0  0  0  0  0  0  0
   36.1617   40.4762  -13.6571 C   0  0  1  0  0  0  0  0  0  0  0  0
   33.8494   37.2794  -15.1764 C   0  0  1  0  0  0  0  0  0  0  0  0
   39.6867   43.5594  -14.7899 C   0  0  2  0  0  0  0  0  0  0  0  0
   40.3580   42.2585  -14.6555 N   0  0  0  0  0  0  0  0  0  0  0  0
   37.3438   42.9282   -9.1144 C   0  0  0  0  0  0  0  0  0  0  0  0
   34.9310   40.5435  -14.5625 C   0  0  2  0  0  0  0  0  0  0  0  0
   33.7421   40.4128  -13.7808 O   0  0  0  0  0  0  0  0  0  0  0  0
   33.5070   36.1097  -14.2477 C   0  0  2  0  0  0  0  0  0  0  0  0
   34.7524   35.4039  -13.9161 N   0  0  0  0  0  0  0  0  0  0  0  0
   40.6904   44.6737  -14.4834 C   0  0  1  0  0  0  0  0  0  0  0  0
   41.7310   44.6538  -15.4653 O   0  0  0  0  0  0  0  0  0  0  0  0
   38.3247   43.3449  -10.2155 C   0  0  2  0  0  0  0  0  0  0  0  0
   38.6721   44.7639  -10.0459 N   0  0  0  0  0  0  0  0  0  0  0  0
   35.1340   39.2617  -15.3679 C   0  0  2  0  0  0  0  0  0  0  0  0
   34.8571   38.1033  -14.5640 O   0  0  0  0  0  0  0  0  0  0  0  0
   32.5456   35.1260  -14.9275 C   0  0  1  0  0  0  0  0  0  0  0  0
   31.2456   35.7075  -15.0570 O   0  0  0  0  0  0  0  0  0  0  0  0
   39.9848   46.0308  -14.5139 C   0  0  2  0  0  0  0  0  0  0  0  0
   40.8995   47.0568  -14.1198 O   0  0  0  0  0  0  0  0  0  0  0  0
   37.7648   43.1377  -11.6283 C   0  0  2  0  0  0  0  0  0  0  0  0
   36.6268   39.3427  -15.6460 C   0  0  2  0  0  0  0  0  0  0  0  0
   37.2185   40.0638  -14.5436 O   0  0  0  0  0  0  0  0  0  0  0  0
   33.0503   34.7363  -16.3179 C   0  0  2  0  0  0  0  0  0  0  0  0
   34.2425   33.9588  -16.1755 O   0  0  0  0  0  0  0  0  0  0  0  0
   38.7918   46.0090  -13.5571 C   0  0  2  0  0  0  0  0  0  0  0  0
   37.8793   44.9554  -13.9240 O   0  0  0  0  0  0  0  0  0  0  0  0
   37.1430   41.7624  -11.8612 C   0  0  2  0  0  0  0  0  0  0  0  0
   36.4034   41.7770  -13.0931 O   0  0  0  0  0  0  0  0  0  0  0  0
   36.8599   40.0740  -16.9697 C   0  0  0  0  0  0  0  0  0  0  0  0
   38.2552   40.0483  -17.2785 O   0  0  0  0  0  0  0  0  0  0  0  0
   33.3347   36.0094  -17.1192 C   0  0  1  0  0  0  0  0  0  0  0  0
   34.3410   36.7680  -16.4255 O   0  0  0  0  0  0  0  0  0  0  0  0
   38.0913   47.3665  -13.6576 C   0  0  0  0  0  0  0  0  0  0  0  0
   38.9609   48.4238  -13.1221 O   0  0  0  0  0  0  0  0  0  0  0  0
   36.2192   41.3748  -10.7004 C   0  0  1  0  0  0  0  0  0  0  0  0
   35.7189   40.0500  -10.8949 O   0  0  0  0  0  0  0  0  0  0  0  0
   33.8255   35.7048  -18.5351 C   0  0  0  0  0  0  0  0  0  0  0  0
   32.7608   35.0169  -19.2786 N   0  0  0  0  0  0  0  0  0  0  0  0
  1  2  1  1  0  0  0
  1  7  1  0  0  0  0
  1 30  1  0  0  0  0
  3  4  1  1  0  0  0
  3  9  1  0  0  0  0
  3 39  1  0  0  0  0
  5 10  1  0  0  0  0
  5 26  1  0  0  0  0
  5 32  1  6  0  0  0
  6 12  1  0  0  0  0
  6 36  1  0  0  0  0
  6 19  1  1  0  0  0
  7  8  1  1  0  0  0
  7 14  1  0  0  0  0
  9 16  1  0  0  0  0
 10 11  1  1  0  0  0
 10 18  1  0  0  0  0
 12 13  1  6  0  0  0
 12 20  1  0  0  0  0
 14 15  1  6  0  0  0
 14 22  1  0  0  0  0
 16 17  1  1  0  0  0
 16 24  1  0  0  0  0
 18 19  1  1  0  0  0
 18 25  1  0  0  0  0
 20 21  1  6  0  0  0
 20 27  1  0  0  0  0
 22 23  1  1  0  0  0
 22 29  1  0  0  0  0
 24  2  1  6  0  0  0
 24 31  1  0  0  0  0
 25 26  1  0  0  0  0
 25 33  1  6  0  0  0
 27 28  1  1  0  0  0
 27 35  1  0  0  0  0
 29 30  1  0  0  0  0
 29 37  1  6  0  0  0
 31 32  1  6  0  0  0
 31 39  1  0  0  0  0
 33 34  1  0  0  0  0
 35 36  1  0  0  0  0
 35 41  1  6  0  0  0
 37 38  1  0  0  0  0
 39 40  1  6  0  0  0
 41 42  1  0  0  0  0
M  END
>  <CHROM.1>
-168.34211893,156.13278517,-175.96738050,123.72994974,-160.16561653,-175.22913076
-67.12810156,159.69544977,63.96167404,36.58982592,40.81804497,-14.00923505
-0.56809629,-0.93621073,-1.90986230

>  <Name>
3c44_lig

>  <RI>
224

>  <Rbt.Current_Directory>
/home/itssahil/PROJECTS/Mol_Feturizer/New_Systems/rnas/3c44

>  <Rbt.Executable>
rbdock ($Id: //depot/dev/client3/rdock/2013.1/src/exe/rbdock.cxx#4 $)

>  <Rbt.Library>
libRbt.so (2013.1, Build901 2013/11/27)

>  <Rbt.Parameter_File>
/export/apps/rDock/src/rDock_2013.1_src/data/scripts/dock_solv.prm

>  <Rbt.Receptor>
prm/pocket_docking_8.prm

>  <SCORE>
-16.3739

>  <SCORE.INTER>
-15.6931

>  <SCORE.INTER.CONST>
1

>  <SCORE.INTER.POLAR>
-1.87178

>  <SCORE.INTER.ROT>
9

>  <SCORE.INTER.SOLV>
11.0256

>  <SCORE.INTER.VDW>
-17.498

>  <SCORE.INTER.norm>
-0.373646

>  <SCORE.INTRA>
-0.680828

>  <SCORE.INTRA.DIHEDRAL>
-0.820847

>  <SCORE.INTRA.DIHEDRAL.0>
14.8538

>  <SCORE.INTRA.POLAR>
0

>  <SCORE.INTRA.POLAR.0>
0

>  <SCORE.INTRA.REPUL>
0.0301844

>  <SCORE.INTRA.REPUL.0>
0

>  <SCORE.INTRA.SOLV>
-3.82033

>  <SCORE.INTRA.SOLV.lig_0>
-100.951

>  <SCORE.INTRA.VDW>
1.48884

>  <SCORE.INTRA.VDW.0>
-5.71388

>  <SCORE.INTRA.norm>
-0.0162102

>  <SCORE.RESTR>
0

>  <SCORE.RESTR.CAVITY>
0

>  <SCORE.RESTR.norm>
0

>  <SCORE.SYSTEM>
0

>  <SCORE.SYSTEM.CONST>
0

>  <SCORE.SYSTEM.DIHEDRAL>
0

>  <SCORE.SYSTEM.SOLV>
0

>  <SCORE.SYSTEM.norm>
0

>  <SCORE.heavy>
42

>  <SCORE.norm>
-0.389856

>  <RMSD>
9.988

$$$$
3c44_lig
 OpenBabel11021811463D
libRbt.so/2013.1/901 2013/11/27
 42 45  0  0  0  0  0  0  0  0999 V2000
   39.0823   44.2208  -13.2255 C   0  0  2  0  0  0  0  0  0  0  0  0
   39.6453   44.3038  -11.9072 O   0  0  0  0  0  0  0  0  0  0  0  0
   38.2045   43.8653   -8.0443 C   0  0  2  0  0  0  0  0  0  0  0  0
   37.5349   43.8412   -6.7348 N   0  0  0  0  0  0  0  0  0  0  0  0
   37.6064   41.2946  -11.9704 C   0  0  1  0  0  0  0  0  0  0  0  0
   37.9732   37.3428  -13.3034 C   0  0  1  0  0  0  0  0  0  0  0  0
   40.2129   44.0290  -14.2418 C   0  0  2  0  0  0  0  0  0  0  0  0
   41.0421   42.8673  -13.8899 N   0  0  0  0  0  0  0  0  0  0  0  0
   38.5167   45.3045   -8.4643 C   0  0  0  0  0  0  0  0  0  0  0  0
   36.3605   40.6007  -12.5229 C   0  0  2  0  0  0  0  0  0  0  0  0
   35.6351   39.9804  -11.4595 O   0  0  0  0  0  0  0  0  0  0  0  0
   38.5236   36.2558  -12.3743 C   0  0  2  0  0  0  0  0  0  0  0  0
   39.6113   36.8383  -11.5763 N   0  0  0  0  0  0  0  0  0  0  0  0
   41.1031   45.2714  -14.3253 C   0  0  1  0  0  0  0  0  0  0  0  0
   42.0415   45.1078  -15.3930 O   0  0  0  0  0  0  0  0  0  0  0  0
   39.3463   45.2454   -9.7513 C   0  0  2  0  0  0  0  0  0  0  0  0
   39.6145   46.6132  -10.2205 N   0  0  0  0  0  0  0  0  0  0  0  0
   37.0243   39.5136  -13.3657 C   0  0  2  0  0  0  0  0  0  0  0  0
   37.5941   38.4939  -12.5286 O   0  0  0  0  0  0  0  0  0  0  0  0
   39.0768   35.0702  -13.1758 C   0  0  1  0  0  0  0  0  0  0  0  0
   38.0099   34.3372  -13.7835 O   0  0  0  0  0  0  0  0  0  0  0  0
   40.2432   46.5096  -14.5858 C   0  0  2  0  0  0  0  0  0  0  0  0
   41.0641   47.6801  -14.5536 O   0  0  0  0  0  0  0  0  0  0  0  0
   38.6559   44.4629  -10.8754 C   0  0  2  0  0  0  0  0  0  0  0  0
   38.1381   40.3136  -14.0226 C   0  0  2  0  0  0  0  0  0  0  0  0
   38.4883   41.3728  -13.1057 O   0  0  0  0  0  0  0  0  0  0  0  0
   40.0328   35.5455  -14.2711 C   0  0  2  0  0  0  0  0  0  0  0  0
   41.2082   36.0824  -13.6575 O   0  0  0  0  0  0  0  0  0  0  0  0
   39.1566   46.6129  -13.5144 C   0  0  2  0  0  0  0  0  0  0  0  0
   38.3438   45.4227  -13.5142 O   0  0  0  0  0  0  0  0  0  0  0  0
   38.1059   43.1039  -10.4474 C   0  0  2  0  0  0  0  0  0  0  0  0
   37.2414   42.5951  -11.4763 O   0  0  0  0  0  0  0  0  0  0  0  0
   37.6415   40.8808  -15.3542 C   0  0  0  0  0  0  0  0  0  0  0  0
   36.5543   41.7746  -15.1051 O   0  0  0  0  0  0  0  0  0  0  0  0
   39.3328   36.6155  -15.1131 C   0  0  1  0  0  0  0  0  0  0  0  0
   38.9846   37.7149  -14.2532 O   0  0  0  0  0  0  0  0  0  0  0  0
   38.2951   47.8348  -13.8432 C   0  0  0  0  0  0  0  0  0  0  0  0
   39.0570   49.0688  -13.6024 O   0  0  0  0  0  0  0  0  0  0  0  0
   37.3373   43.2152   -9.1253 C   0  0  1  0  0  0  0  0  0  0  0  0
   36.9086   41.9202   -8.6984 O   0  0  0  0  0  0  0  0  0  0  0  0
   40.2185   37.1297  -16.2486 C   0  0  0  0  0  0  0  0  0  0  0  0
   40.3678   36.0752  -17.2612 N   0  0  0  0  0  0  0  0  0  0  0  0
  1  2  1  1  0  0  0
  1  7  1  0  0  0  0
  1 30  1  0  0  0  0
  3  4  1  1  0  0  0
  3  9  1  0  0  0  0
  3 39  1  0  0  0  0
  5 10  1  0  0  0  0
  5 26  1  0  0  0  0
  5 32  1  6  0  0  0
  6 12  1  0  0  0  0
  6 36  1  0  0  0  0
  6 19  1  1  0  0  0
  7  8  1  1  0  0  0
  7 14  1  0  0  0  0
  9 16  1  0  0  0  0
 10 11  1  1  0  0  0
 10 18  1  0  0  0  0
 12 13  1  6  0  0  0
 12 20  1  0  0  0  0
 14 15  1  6  0  0  0
 14 22  1  0  0  0  0
 16 17  1  6  0  0  0
 16 24  1  0  0  0  0
 18 19  1  1  0  0  0
 18 25  1  0  0  0  0
 20 21  1  6  0  0  0
 20 27  1  0  0  0  0
 22 23  1  1  0  0  0
 22 29  1  0  0  0  0
 24  2  1  6  0  0  0
 24 31  1  0  0  0  0
 25 26  1  0  0  0  0
 25 33  1  6  0  0  0
 27 28  1  1  0  0  0
 27 35  1  0  0  0  0
 29 30  1  0  0  0  0
 29 37  1  6  0  0  0
 31 32  1  6  0  0  0
 31 39  1  0  0  0  0
 33 34  1  0  0  0  0
 35 36  1  0  0  0  0
 35 41  1  6  0  0  0
 37 38  1  0  0  0  0
 39 40  1  1  0  0  0
 41 42  1  0  0  0  0
M  END
>  <CHROM.1>
-179.02335549,154.11355842,-177.73753490,168.13919095,-150.75161829,62.42588754
-70.35865572,123.96806658,70.36962443,38.78377805,41.73407784,-12.75746470
-1.50619707,-1.13684243,-2.88641334

>  <Name>
3c44_lig

>  <RI>
0

>  <Rbt.Current_Directory>
/home/itssahil/PROJECTS/Mol_Feturizer/New_Systems/rnas/3c44

>  <Rbt.Executable>
rbdock ($Id: //depot/dev/client3/rdock/2013.1/src/exe/rbdock.cxx#4 $)

>  <Rbt.Library>
libRbt.so (2013.1, Build901 2013/11/27)

>  <Rbt.Parameter_File>
/export/apps/rDock/src/rDock_2013.1_src/data/scripts/dock_solv.prm

>  <Rbt.Receptor>
prm/pocket_docking_6.prm

>  <SCORE>
-9.68031

>  <SCORE.INTER>
-10.3222

>  <SCORE.INTER.CONST>
1

>  <SCORE.INTER.POLAR>
-0.87178

>  <SCORE.INTER.ROT>
9

>  <SCORE.INTER.SOLV>
11.739

>  <SCORE.INTER.VDW>
-17.4885

>  <SCORE.INTER.norm>
-0.245767

>  <SCORE.INTRA>
0.476712

>  <SCORE.INTRA.DIHEDRAL>
0.325761

>  <SCORE.INTRA.DIHEDRAL.0>
14.8538

>  <SCORE.INTRA.POLAR>
0

>  <SCORE.INTRA.POLAR.0>
0

>  <SCORE.INTRA.REPUL>
0

>  <SCORE.INTRA.REPUL.0>
0

>  <SCORE.INTRA.SOLV>
-1.08095

>  <SCORE.INTRA.SOLV.lig_0>
-100.951

>  <SCORE.INTRA.VDW>
0.854307

>  <SCORE.INTRA.VDW.0>
-5.71388

>  <SCORE.INTRA.norm>
0.0113503

>  <SCORE.RESTR>
0.165207

>  <SCORE.RESTR.CAVITY>
0.165207

>  <SCORE.RESTR.norm>
0.0039335

>  <SCORE.SYSTEM>
0

>  <SCORE.SYSTEM.CONST>
0

>  <SCORE.SYSTEM.DIHEDRAL>
0

>  <SCORE.SYSTEM.SOLV>
0

>  <SCORE.SYSTEM.norm>
0

>  <SCORE.heavy>
42

>  <SCORE.norm>
-0.230484

>  <RMSD>
10.016

$$$$
3c44_lig
 OpenBabel11021811463D
libRbt.so/2013.1/901 2013/11/27
 42 45  0  0  0  0  0  0  0  0999 V2000
   39.3578   40.7247   -3.5029 C   0  0  2  0  0  0  0  0  0  0  0  0
   38.0643   41.3464   -3.5500 O   0  0  0  0  0  0  0  0  0  0  0  0
   36.4429   37.5395   -3.2900 C   0  0  2  0  0  0  0  0  0  0  0  0
   35.6880   36.2868   -3.1330 N   0  0  0  0  0  0  0  0  0  0  0  0
   36.9853   41.5024   -6.1788 C   0  0  1  0  0  0  0  0  0  0  0  0
   38.3054   44.3191   -9.0292 C   0  0  1  0  0  0  0  0  0  0  0  0
   40.4375   41.8048   -3.6266 C   0  0  2  0  0  0  0  0  0  0  0  0
   40.2560   42.8465   -2.6054 N   0  0  0  0  0  0  0  0  0  0  0  0
   36.4313   38.3435   -1.9867 C   0  0  0  0  0  0  0  0  0  0  0  0
   36.1539   42.4800   -7.0108 C   0  0  2  0  0  0  0  0  0  0  0  0
   35.9621   41.9597   -8.3277 O   0  0  0  0  0  0  0  0  0  0  0  0
   39.4774   43.9697   -9.9523 C   0  0  2  0  0  0  0  0  0  0  0  0
   40.6928   43.8609   -9.1339 N   0  0  0  0  0  0  0  0  0  0  0  0
   40.4185   42.4548   -5.0123 C   0  0  1  0  0  0  0  0  0  0  0  0
   41.5377   43.3379   -5.1340 O   0  0  0  0  0  0  0  0  0  0  0  0
   37.3591   39.5486   -2.1737 C   0  0  2  0  0  0  0  0  0  0  0  0
   37.3266   40.3804   -0.9613 N   0  0  0  0  0  0  0  0  0  0  0  0
   37.1306   43.6521   -7.0820 C   0  0  2  0  0  0  0  0  0  0  0  0
   38.2239   43.3539   -7.9658 O   0  0  0  0  0  0  0  0  0  0  0  0
   39.6899   45.0575  -11.0133 C   0  0  1  0  0  0  0  0  0  0  0  0
   38.6271   45.0363  -11.9699 O   0  0  0  0  0  0  0  0  0  0  0  0
   40.4993   41.3753   -6.0933 C   0  0  2  0  0  0  0  0  0  0  0  0
   40.3705   41.9773   -7.3840 O   0  0  0  0  0  0  0  0  0  0  0  0
   36.9800   40.4168   -3.3800 C   0  0  2  0  0  0  0  0  0  0  0  0
   37.6311   43.6833   -5.6465 C   0  0  2  0  0  0  0  0  0  0  0  0
   37.5600   42.3292   -5.1498 O   0  0  0  0  0  0  0  0  0  0  0  0
   39.7475   46.4456  -10.3734 C   0  0  2  0  0  0  0  0  0  0  0  0
   40.9374   46.5422   -9.5854 O   0  0  0  0  0  0  0  0  0  0  0  0
   39.3768   40.3575   -5.8853 C   0  0  2  0  0  0  0  0  0  0  0  0
   39.4760   39.7691   -4.5734 O   0  0  0  0  0  0  0  0  0  0  0  0
   36.7418   39.6314   -4.6680 C   0  0  2  0  0  0  0  0  0  0  0  0
   36.1198   40.4882   -5.6395 O   0  0  0  0  0  0  0  0  0  0  0  0
   36.7480   44.6196   -4.8189 C   0  0  0  0  0  0  0  0  0  0  0  0
   35.8623   43.8373   -4.0148 O   0  0  0  0  0  0  0  0  0  0  0  0
   38.5080   46.6413   -9.4964 C   0  0  1  0  0  0  0  0  0  0  0  0
   38.5093   45.6285   -8.4749 O   0  0  0  0  0  0  0  0  0  0  0  0
   39.5272   39.2750   -6.9572 C   0  0  0  0  0  0  0  0  0  0  0  0
   40.8060   38.5704   -6.7866 O   0  0  0  0  0  0  0  0  0  0  0  0
   35.8572   38.4064   -4.4074 C   0  0  1  0  0  0  0  0  0  0  0  0
   35.7206   37.6382   -5.6050 O   0  0  0  0  0  0  0  0  0  0  0  0
   38.4791   48.0194   -8.8343 C   0  0  0  0  0  0  0  0  0  0  0  0
   37.1292   48.2781   -8.3143 N   0  0  0  0  0  0  0  0  0  0  0  0
  1  2  1  6  0  0  0
  1  7  1  0  0  0  0
  1 30  1  0  0  0  0
  3  4  1  1  0  0  0
  3  9  1  0  0  0  0
  3 39  1  0  0  0  0
  5 10  1  0  0  0  0
  5 26  1  0  0  0  0
  5 32  1  1  0  0  0
  6 12  1  0  0  0  0
  6 36  1  0  0  0  0
  6 19  1  1  0  0  0
  7  8  1  1  0  0  0
  7 14  1  0  0  0  0
  9 16  1  0  0  0  0
 10 11  1  6  0  0  0
 10 18  1  0  0  0  0
 12 13  1  1  0  0  0
 12 20  1  0  0  0  0
 14 15  1  1  0  0  0
 14 22  1  0  0  0  0
 16 17  1  1  0  0  0
 16 24  1  0  0  0  0
 18 19  1  6  0  0  0
 18 25  1  0  0  0  0
 20 21  1  6  0  0  0
 20 27  1  0  0  0  0
 22 23  1  6  0  0  0
 22 29  1  0  0  0  0
 24  2  1  6  0  0  0
 24 31  1  0  0  0  0
 25 26  1  0  0  0  0
 25 33  1  1  0  0  0
 27 28  1  1  0  0  0
 27 35  1  0  0  0  0
 29 30  1  0  0  0  0
 29 37  1  6  0  0  0
 31 32  1  6  0  0  0
 31 39  1  0  0  0  0
 33 34  1  0  0  0  0
 35 36  1  0  0  0  0
 35 41  1  1  0  0  0
 37 38  1  0  0  0  0
 39 40  1  6  0  0  0
 41 42  1  0  0  0  0
M  END
>  <CHROM.1>
-177.34149749,-170.62284633,-179.87458022,121.66587255,47.12853701,103.42904638
62.89122158,71.17452558,165.02769695,38.27232146,42.23769819,-6.18524507
-1.80358860,0.51678016,-0.60787604

>  <Name>
3c44_lig

>  <RI>
0

>  <Rbt.Current_Directory>
/home/itssahil/PROJECTS/Mol_Feturizer/New_Systems/rnas/3c44

>  <Rbt.Executable>
rbdock ($Id: //depot/dev/client3/rdock/2013.1/src/exe/rbdock.cxx#4 $)

>  <Rbt.Library>
libRbt.so (2013.1, Build901 2013/11/27)

>  <Rbt.Parameter_File>
/export/apps/rDock/src/rDock_2013.1_src/data/scripts/dock_solv.prm

>  <Rbt.Receptor>
prm/blind_docking_100.prm

>  <SCORE>
39.4117

>  <SCORE.INTER>
14.7864

>  <SCORE.INTER.CONST>
1

>  <SCORE.INTER.POLAR>
-0.429355

>  <SCORE.INTER.ROT>
9

>  <SCORE.INTER.SOLV>
27.4711

>  <SCORE.INTER.VDW>
-7.46822

>  <SCORE.INTER.norm>
0.352058

>  <SCORE.INTRA>
20.8358

>  <SCORE.INTRA.DIHEDRAL>
-0.863603

>  <SCORE.INTRA.DIHEDRAL.0>
14.8538

>  <SCORE.INTRA.POLAR>
0

>  <SCORE.INTRA.POLAR.0>
0

>  <SCORE.INTRA.REPUL>
0.33545

>  <SCORE.INTRA.REPUL.0>
0

>  <SCORE.INTRA.SOLV>
0.795364

>  <SCORE.INTRA.SOLV.lig_0>
-100.951

>  <SCORE.INTRA.VDW>
19.1927

>  <SCORE.INTRA.VDW.0>
-5.71388

>  <SCORE.INTRA.norm>
0.49609

>  <SCORE.RESTR>
3.78943

>  <SCORE.RESTR.CAVITY>
3.78943

>  <SCORE.RESTR.norm>
0.0902245

>  <SCORE.SYSTEM>
0

>  <SCORE.SYSTEM.CONST>
0

>  <SCORE.SYSTEM.DIHEDRAL>
0

>  <SCORE.SYSTEM.SOLV>
0

>  <SCORE.SYSTEM.norm>
0

>  <SCORE.heavy>
42

>  <SCORE.norm>
0.938373

>  <RMSD>
10.049

$$$$
3c44_lig
 OpenBabel11021811463D
libRbt.so/2013.1/901 2013/11/27
 42 45  0  0  0  0  0  0  0  0999 V2000
   38.9185   44.1698  -13.9921 C   0  0  2  0  0  0  0  0  0  0  0  0
   39.4061   43.9058  -12.6676 O   0  0  0  0  0  0  0  0  0  0  0  0
   37.6965   42.5339   -9.1485 C   0  0  2  0  0  0  0  0  0  0  0  0
   36.9437   42.2015   -7.9291 N   0  0  0  0  0  0  0  0  0  0  0  0
   36.7038   40.9685  -13.2771 C   0  0  1  0  0  0  0  0  0  0  0  0
   35.6687   37.1604  -14.4974 C   0  0  1  0  0  0  0  0  0  0  0  0
   40.0561   43.9568  -14.9964 C   0  0  2  0  0  0  0  0  0  0  0  0
   40.6409   42.6162  -14.8490 N   0  0  0  0  0  0  0  0  0  0  0  0
   38.1184   44.0060   -9.1378 C   0  0  0  0  0  0  0  0  0  0  0  0
   35.3126   40.8223  -13.8954 C   0  0  2  0  0  0  0  0  0  0  0  0
   34.3422   40.6075  -12.8688 O   0  0  0  0  0  0  0  0  0  0  0  0
   34.3010   36.7877  -15.0789 C   0  0  2  0  0  0  0  0  0  0  0  0
   33.3230   36.7687  -13.9824 N   0  0  0  0  0  0  0  0  0  0  0  0
   41.1578   45.0048  -14.8200 C   0  0  1  0  0  0  0  0  0  0  0  0
   42.1148   44.8644  -15.8744 O   0  0  0  0  0  0  0  0  0  0  0  0
   39.0243   44.2405  -10.3512 C   0  0  2  0  0  0  0  0  0  0  0  0
   39.4012   45.6609  -10.4096 N   0  0  0  0  0  0  0  0  0  0  0  0
   35.5100   39.5189  -14.6668 C   0  0  2  0  0  0  0  0  0  0  0  0
   35.5637   38.3971  -13.7703 O   0  0  0  0  0  0  0  0  0  0  0  0
   34.3374   35.4012  -15.7349 C   0  0  1  0  0  0  0  0  0  0  0  0
   35.1002   35.4408  -16.9438 O   0  0  0  0  0  0  0  0  0  0  0  0
   40.5509   46.4084  -14.8641 C   0  0  2  0  0  0  0  0  0  0  0  0
   41.5647   47.3789  -14.5895 O   0  0  0  0  0  0  0  0  0  0  0  0
   38.3632   43.8488  -11.6787 C   0  0  2  0  0  0  0  0  0  0  0  0
   36.8870   39.7574  -15.2661 C   0  0  2  0  0  0  0  0  0  0  0  0
   37.5961   40.6221  -14.3525 O   0  0  0  0  0  0  0  0  0  0  0  0
   34.9576   34.3651  -14.7961 C   0  0  2  0  0  0  0  0  0  0  0  0
   34.0781   34.1618  -13.6865 O   0  0  0  0  0  0  0  0  0  0  0  0
   39.4374   46.5176  -13.8213 C   0  0  2  0  0  0  0  0  0  0  0  0
   38.4261   45.5207  -14.0676 O   0  0  0  0  0  0  0  0  0  0  0  0
   37.7087   42.4689  -11.6703 C   0  0  2  0  0  0  0  0  0  0  0  0
   36.8842   42.3264  -12.8385 O   0  0  0  0  0  0  0  0  0  0  0  0
   36.7383   40.4133  -16.6405 C   0  0  0  0  0  0  0  0  0  0  0  0
   36.0293   39.5256  -17.5079 O   0  0  0  0  0  0  0  0  0  0  0  0
   36.3163   34.8802  -14.3141 C   0  0  1  0  0  0  0  0  0  0  0  0
   36.1100   36.1188  -13.6121 O   0  0  0  0  0  0  0  0  0  0  0  0
   38.8303   47.9183  -13.9355 C   0  0  0  0  0  0  0  0  0  0  0  0
   37.8349   48.1247  -12.8737 O   0  0  0  0  0  0  0  0  0  0  0  0
   36.8643   42.2703  -10.4060 C   0  0  1  0  0  0  0  0  0  0  0  0
   36.3345   40.9431  -10.3753 O   0  0  0  0  0  0  0  0  0  0  0  0
   37.0146   33.8880  -13.3833 C   0  0  0  0  0  0  0  0  0  0  0  0
   36.2481   33.7746  -12.1345 N   0  0  0  0  0  0  0  0  0  0  0  0
  1  2  1  1  0  0  0
  1  7  1  0  0  0  0
  1 30  1  0  0  0  0
  3  4  1  1  0  0  0
  3  9  1  0  0  0  0
  3 39  1  0  0  0  0
  5 10  1  0  0  0  0
  5 26  1  0  0  0  0
  5 32  1  6  0  0  0
  6 12  1  0  0  0  0
  6 36  1  0  0  0  0
  6 19  1  1  0  0  0
  7  8  1  1  0  0  0
  7 14  1  0  0  0  0
  9 16  1  0  0  0  0
 10 11  1  1  0  0  0
 10 18  1  0  0  0  0
 12 13  1  1  0  0  0
 12 20  1  0  0  0  0
 14 15  1  6  0  0  0
 14 22  1  0  0  0  0
 16 17  1  6  0  0  0
 16 24  1  0  0  0  0
 18 19  1  1  0  0  0
 18 25  1  0  0  0  0
 20 21  1  6  0  0  0
 20 27  1  0  0  0  0
 22 23  1  1  0  0  0
 22 29  1  0  0  0  0
 24  2  1  6  0  0  0
 24 31  1  0  0  0  0
 25 26  1  0  0  0  0
 25 33  1  6  0  0  0
 27 28  1  1  0  0  0
 27 35  1  0  0  0  0
 29 30  1  0  0  0  0
 29 37  1  6  0  0  0
 31 32  1  6  0  0  0
 31 39  1  0  0  0  0
 33 34  1  0  0  0  0
 35 36  1  0  0  0  0
 35 41  1  1  0  0  0
 37 38  1  0  0  0  0
 39 40  1  1  0  0  0
 41 42  1  0  0  0  0
M  END
>  <CHROM.1>
-169.72348423,147.38918188,-76.81111288,176.53654052,-153.36689193,-62.13772918
-174.85131569,153.38780601,-66.68280624,37.33811227,41.10978858,-13.49179144
-0.53913792,-1.08667501,-2.03332402

>  <Name>
3c44_lig

>  <RI>
0

>  <Rbt.Current_Directory>
/home/itssahil/PROJECTS/Mol_Feturizer/New_Systems/rnas/3c44

>  <Rbt.Executable>
rbdock ($Id: //depot/dev/client3/rdock/2013.1/src/exe/rbdock.cxx#4 $)

>  <Rbt.Library>
libRbt.so (2013.1, Build901 2013/11/27)

>  <Rbt.Parameter_File>
/export/apps/rDock/src/rDock_2013.1_src/data/scripts/dock_solv.prm

>  <Rbt.Receptor>
prm/pocket_docking_5.prm

>  <SCORE>
-14.4907

>  <SCORE.INTER>
-13.9335

>  <SCORE.INTER.CONST>
1

>  <SCORE.INTER.POLAR>
-1.93808

>  <SCORE.INTER.ROT>
9

>  <SCORE.INTER.SOLV>
13.6708

>  <SCORE.INTER.VDW>
-16.9857

>  <SCORE.INTER.norm>
-0.331751

>  <SCORE.INTRA>
-0.55719

>  <SCORE.INTRA.DIHEDRAL>
-2.34965

>  <SCORE.INTRA.DIHEDRAL.0>
14.8538

>  <SCORE.INTRA.POLAR>
0

>  <SCORE.INTRA.POLAR.0>
0

>  <SCORE.INTRA.REPUL>
0.0191223

>  <SCORE.INTRA.REPUL.0>
0

>  <SCORE.INTRA.SOLV>
-1.28366

>  <SCORE.INTRA.SOLV.lig_0>
-100.951

>  <SCORE.INTRA.VDW>
1.16385

>  <SCORE.INTRA.VDW.0>
-5.71388

>  <SCORE.INTRA.norm>
-0.0132664

>  <SCORE.RESTR>
0

>  <SCORE.RESTR.CAVITY>
0

>  <SCORE.RESTR.norm>
0

>  <SCORE.SYSTEM>
0

>  <SCORE.SYSTEM.CONST>
0

>  <SCORE.SYSTEM.DIHEDRAL>
0

>  <SCORE.SYSTEM.SOLV>
0

>  <SCORE.SYSTEM.norm>
0

>  <SCORE.heavy>
42

>  <SCORE.norm>
-0.345017

>  <RMSD>
10.056

$$$$
3c44_lig
 OpenBabel11021811463D
libRbt.so/2013.1/901 2013/11/27
 42 45  0  0  0  0  0  0  0  0999 V2000
   38.1158   38.7445   -4.6399 C   0  0  2  0  0  0  0  0  0  0  0  0
   37.2378   39.7390   -4.0905 O   0  0  0  0  0  0  0  0  0  0  0  0
   35.1307   39.3230   -0.5442 C   0  0  2  0  0  0  0  0  0  0  0  0
   34.5755   39.1608    0.8083 N   0  0  0  0  0  0  0  0  0  0  0  0
   37.3786   42.5317   -3.5429 C   0  0  1  0  0  0  0  0  0  0  0  0
   38.0856   43.7500   -7.0895 C   0  0  1  0  0  0  0  0  0  0  0  0
   39.4521   39.4012   -5.0020 C   0  0  2  0  0  0  0  0  0  0  0  0
   40.0220   40.1031   -3.8428 N   0  0  0  0  0  0  0  0  0  0  0  0
   36.0690   38.1617   -0.8852 C   0  0  0  0  0  0  0  0  0  0  0  0
   36.0239   42.7649   -4.2134 C   0  0  2  0  0  0  0  0  0  0  0  0
   35.5270   41.5374   -4.7501 O   0  0  0  0  0  0  0  0  0  0  0  0
   37.3539   44.4316   -8.2505 C   0  0  2  0  0  0  0  0  0  0  0  0
   36.7077   43.3915   -9.0628 N   0  0  0  0  0  0  0  0  0  0  0  0
   39.2902   40.3930   -6.1566 C   0  0  1  0  0  0  0  0  0  0  0  0
   40.5809   40.8588   -6.5621 O   0  0  0  0  0  0  0  0  0  0  0  0
   36.4839   38.3126   -2.3525 C   0  0  2  0  0  0  0  0  0  0  0  0
   37.4361   37.2473   -2.7008 N   0  0  0  0  0  0  0  0  0  0  0  0
   36.4599   43.6659   -5.3671 C   0  0  2  0  0  0  0  0  0  0  0  0
   37.1675   42.9123   -6.3653 O   0  0  0  0  0  0  0  0  0  0  0  0
   38.3305   45.2166   -9.1359 C   0  0  1  0  0  0  0  0  0  0  0  0
   38.8055   46.3769   -8.4482 O   0  0  0  0  0  0  0  0  0  0  0  0
   38.6002   39.7071   -7.3372 C   0  0  2  0  0  0  0  0  0  0  0  0
   38.3520   40.6639   -8.3706 O   0  0  0  0  0  0  0  0  0  0  0  0
   37.1272   39.6710   -2.6581 C   0  0  2  0  0  0  0  0  0  0  0  0
   37.4285   44.5901   -4.6461 C   0  0  2  0  0  0  0  0  0  0  0  0
   37.9974   43.8315   -3.5570 O   0  0  0  0  0  0  0  0  0  0  0  0
   39.5302   44.3536   -9.5303 C   0  0  2  0  0  0  0  0  0  0  0  0
   39.0837   43.3135  -10.4050 O   0  0  0  0  0  0  0  0  0  0  0  0
   37.2773   39.0961   -6.8724 C   0  0  2  0  0  0  0  0  0  0  0  0
   37.5117   38.1550   -5.8063 O   0  0  0  0  0  0  0  0  0  0  0  0
   36.3454   40.8696   -2.1243 C   0  0  2  0  0  0  0  0  0  0  0  0
   37.1652   42.0468   -2.2057 O   0  0  0  0  0  0  0  0  0  0  0  0
   36.6732   45.8155   -4.1270 C   0  0  0  0  0  0  0  0  0  0  0  0
   35.7482   45.4021   -3.1189 O   0  0  0  0  0  0  0  0  0  0  0  0
   40.1522   43.7576   -8.2647 C   0  0  1  0  0  0  0  0  0  0  0  0
   39.1600   42.9496   -7.6075 O   0  0  0  0  0  0  0  0  0  0  0  0
   36.6489   38.3823   -8.0719 C   0  0  0  0  0  0  0  0  0  0  0  0
   36.0373   39.3637   -8.9795 O   0  0  0  0  0  0  0  0  0  0  0  0
   35.9068   40.6361   -0.6738 C   0  0  1  0  0  0  0  0  0  0  0  0
   35.1023   41.7287   -0.2243 O   0  0  0  0  0  0  0  0  0  0  0  0
   41.3764   42.8944   -8.5725 C   0  0  0  0  0  0  0  0  0  0  0  0
   42.5632   43.4991   -7.9519 N   0  0  0  0  0  0  0  0  0  0  0  0
  1  2  1  6  0  0  0
  1  7  1  0  0  0  0
  1 30  1  0  0  0  0
  3  4  1  1  0  0  0
  3  9  1  0  0  0  0
  3 39  1  0  0  0  0
  5 10  1  0  0  0  0
  5 26  1  0  0  0  0
  5 32  1  1  0  0  0
  6 12  1  0  0  0  0
  6 36  1  0  0  0  0
  6 19  1  6  0  0  0
  7  8  1  1  0  0  0
  7 14  1  0  0  0  0
  9 16  1  0  0  0  0
 10 11  1  6  0  0  0
 10 18  1  0  0  0  0
 12 13  1  6  0  0  0
 12 20  1  0  0  0  0
 14 15  1  6  0  0  0
 14 22  1  0  0  0  0
 16 17  1  1  0  0  0
 16 24  1  0  0  0  0
 18 19  1  6  0  0  0
 18 25  1  0  0  0  0
 20 21  1  1  0  0  0
 20 27  1  0  0  0  0
 22 23  1  6  0  0  0
 22 29  1  0  0  0  0
 24  2  1  6  0  0  0
 24 31  1  0  0  0  0
 25 26  1  0  0  0  0
 25 33  1  1  0  0  0
 27 28  1  6  0  0  0
 27 35  1  0  0  0  0
 29 30  1  0  0  0  0
 29 37  1  6  0  0  0
 31 32  1  1  0  0  0
 31 39  1  0  0  0  0
 33 34  1  0  0  0  0
 35 36  1  0  0  0  0
 35 41  1  6  0  0  0
 37 38  1  0  0  0  0
 39 40  1  6  0  0  0
 41 42  1  0  0  0  0
M  END
>  <CHROM.1>
-102.87437878,55.18951021,-85.93030358,-153.15970769,-63.92856182,65.98768528
-77.18025372,71.46127615,116.68200677,37.66295372,41.65659249,-5.34118497
-2.53874127,1.12814448,-0.14612803

>  <Name>
3c44_lig

>  <RI>
0

>  <Rbt.Current_Directory>
/home/itssahil/PROJECTS/Mol_Feturizer/New_Systems/rnas/3c44

>  <Rbt.Executable>
rbdock ($Id: //depot/dev/client3/rdock/2013.1/src/exe/rbdock.cxx#4 $)

>  <Rbt.Library>
libRbt.so (2013.1, Build901 2013/11/27)

>  <Rbt.Parameter_File>
/export/apps/rDock/src/rDock_2013.1_src/data/scripts/dock_solv.prm

>  <Rbt.Receptor>
prm/blind_docking_80.prm

>  <SCORE>
3.22327

>  <SCORE.INTER>
-11.6891

>  <SCORE.INTER.CONST>
1

>  <SCORE.INTER.POLAR>
-1.56856

>  <SCORE.INTER.ROT>
9

>  <SCORE.INTER.SOLV>
24.5945

>  <SCORE.INTER.VDW>
-20.3623

>  <SCORE.INTER.norm>
-0.278311

>  <SCORE.INTRA>
9.7468

>  <SCORE.INTRA.DIHEDRAL>
4.24638

>  <SCORE.INTRA.DIHEDRAL.0>
14.8538

>  <SCORE.INTRA.POLAR>
0

>  <SCORE.INTRA.POLAR.0>
0

>  <SCORE.INTRA.REPUL>
0.335857

>  <SCORE.INTRA.REPUL.0>
0

>  <SCORE.INTRA.SOLV>
2.92046

>  <SCORE.INTRA.SOLV.lig_0>
-100.951

>  <SCORE.INTRA.VDW>
4.4841

>  <SCORE.INTRA.VDW.0>
-5.71388

>  <SCORE.INTRA.norm>
0.232067

>  <SCORE.RESTR>
5.16554

>  <SCORE.RESTR.CAVITY>
5.16554

>  <SCORE.RESTR.norm>
0.122989

>  <SCORE.SYSTEM>
0

>  <SCORE.SYSTEM.CONST>
0

>  <SCORE.SYSTEM.DIHEDRAL>
0

>  <SCORE.SYSTEM.SOLV>
0

>  <SCORE.SYSTEM.norm>
0

>  <SCORE.heavy>
42

>  <SCORE.norm>
0.0767446

>  <RMSD>
10.211

$$$$
3c44_lig
 OpenBabel11021811463D
libRbt.so/2013.1/901 2013/11/27
 42 45  0  0  0  0  0  0  0  0999 V2000
   38.5491   44.1896  -13.9690 C   0  0  2  0  0  0  0  0  0  0  0  0
   39.1224   43.8205  -12.7053 O   0  0  0  0  0  0  0  0  0  0  0  0
   37.6192   41.8837   -9.3618 C   0  0  2  0  0  0  0  0  0  0  0  0
   36.9388   41.3528   -8.1706 N   0  0  0  0  0  0  0  0  0  0  0  0
   36.3441   41.0005  -13.5991 C   0  0  1  0  0  0  0  0  0  0  0  0
   34.2834   37.4771  -14.8129 C   0  0  1  0  0  0  0  0  0  0  0  0
   39.6523   44.2114  -15.0322 C   0  0  2  0  0  0  0  0  0  0  0  0
   40.3676   42.9277  -15.0714 N   0  0  0  0  0  0  0  0  0  0  0  0
   38.0473   43.3366   -9.1362 C   0  0  0  0  0  0  0  0  0  0  0  0
   34.8670   40.9042  -13.9836 C   0  0  2  0  0  0  0  0  0  0  0  0
   34.0944   40.4923  -12.8543 O   0  0  0  0  0  0  0  0  0  0  0  0
   34.3574   36.2417  -13.9094 C   0  0  2  0  0  0  0  0  0  0  0  0
   35.7659   35.8396  -13.7920 N   0  0  0  0  0  0  0  0  0  0  0  0
   40.6573   45.3356  -14.7687 C   0  0  1  0  0  0  0  0  0  0  0  0
   41.5716   45.4170  -15.8663 O   0  0  0  0  0  0  0  0  0  0  0  0
   38.8804   43.7709  -10.3468 C   0  0  2  0  0  0  0  0  0  0  0  0
   39.2593   45.1838  -10.1949 N   0  0  0  0  0  0  0  0  0  0  0  0
   34.9358   39.7492  -14.9807 C   0  0  2  0  0  0  0  0  0  0  0  0
   35.1556   38.5011  -14.3032 O   0  0  0  0  0  0  0  0  0  0  0  0
   33.5562   35.0745  -14.5006 C   0  0  1  0  0  0  0  0  0  0  0  0
   32.1534   35.3389  -14.4172 O   0  0  0  0  0  0  0  0  0  0  0  0
   39.9191   46.6671  -14.6185 C   0  0  2  0  0  0  0  0  0  0  0  0
   40.8486   47.6943  -14.2639 O   0  0  0  0  0  0  0  0  0  0  0  0
   38.1400   43.5973  -11.6787 C   0  0  2  0  0  0  0  0  0  0  0  0
   36.1837   40.1309  -15.7612 C   0  0  2  0  0  0  0  0  0  0  0  0
   37.0357   40.8637  -14.8543 O   0  0  0  0  0  0  0  0  0  0  0  0
   33.9259   34.8407  -15.9664 C   0  0  2  0  0  0  0  0  0  0  0  0
   35.2716   34.3602  -16.0326 O   0  0  0  0  0  0  0  0  0  0  0  0
   38.8514   46.5406  -13.5307 C   0  0  2  0  0  0  0  0  0  0  0  0
   37.9283   45.4841  -13.8605 O   0  0  0  0  0  0  0  0  0  0  0  0
   37.4812   42.2309  -11.8567 C   0  0  2  0  0  0  0  0  0  0  0  0
   36.5880   42.2763  -12.9815 O   0  0  0  0  0  0  0  0  0  0  0  0
   35.7899   40.9925  -16.9629 C   0  0  0  0  0  0  0  0  0  0  0  0
   34.9470   40.2294  -17.8290 O   0  0  0  0  0  0  0  0  0  0  0  0
   33.7912   36.1605  -16.7304 C   0  0  1  0  0  0  0  0  0  0  0  0
   34.6890   37.1192  -16.1436 O   0  0  0  0  0  0  0  0  0  0  0  0
   38.1099   47.8774  -13.4504 C   0  0  0  0  0  0  0  0  0  0  0  0
   38.9632   48.8902  -12.8124 O   0  0  0  0  0  0  0  0  0  0  0  0
   36.7126   41.8242  -10.5938 C   0  0  1  0  0  0  0  0  0  0  0  0
   36.1798   40.5069  -10.7487 O   0  0  0  0  0  0  0  0  0  0  0  0
   34.1243   36.0067  -18.2149 C   0  0  0  0  0  0  0  0  0  0  0  0
   33.0885   35.1885  -18.8609 N   0  0  0  0  0  0  0  0  0  0  0  0
  1  2  1  1  0  0  0
  1  7  1  0  0  0  0
  1 30  1  0  0  0  0
  3  4  1  1  0  0  0
  3  9  1  0  0  0  0
  3 39  1  0  0  0  0
  5 10  1  0  0  0  0
  5 26  1  0  0  0  0
  5 32  1  6  0  0  0
  6 12  1  0  0  0  0
  6 36  1  0  0  0  0
  6 19  1  1  0  0  0
  7  8  1  1  0  0  0
  7 14  1  0  0  0  0
  9 16  1  0  0  0  0
 10 11  1  1  0  0  0
 10 18  1  0  0  0  0
 12 13  1  6  0  0  0
 12 20  1  0  0  0  0
 14 15  1  6  0  0  0
 14 22  1  0  0  0  0
 16 17  1  1  0  0  0
 16 24  1  0  0  0  0
 18 19  1  1  0  0  0
 18 25  1  0  0  0  0
 20 21  1  6  0  0  0
 20 27  1  0  0  0  0
 22 23  1  1  0  0  0
 22 29  1  0  0  0  0
 24  2  1  6  0  0  0
 24 31  1  0  0  0  0
 25 26  1  0  0  0  0
 25 33  1  6  0  0  0
 27 28  1  1  0  0  0
 27 35  1  0  0  0  0
 29 30  1  0  0  0  0
 29 37  1  6  0  0  0
 31 32  1  6  0  0  0
 31 39  1  0  0  0  0
 33 34  1  0  0  0  0
 35 36  1  0  0  0  0
 35 41  1  6  0  0  0
 37 38  1  0  0  0  0
 39 40  1  6  0  0  0
 41 42  1  0  0  0  0
M  END
>  <CHROM.1>
-172.15751369,140.06795330,-169.72179876,134.79957805,-158.13179460,-62.17779387
-73.27493219,155.19105487,68.29583513,36.77862151,41.24220872,-13.91739297
-0.34244535,-1.05430392,-1.66666293

>  <Name>
3c44_lig

>  <RI>
0

>  <Rbt.Current_Directory>
/home/itssahil/PROJECTS/Mol_Feturizer/New_Systems/rnas/3c44

>  <Rbt.Executable>
rbdock ($Id: //depot/dev/client3/rdock/2013.1/src/exe/rbdock.cxx#4 $)

>  <Rbt.Library>
libRbt.so (2013.1, Build901 2013/11/27)

>  <Rbt.Parameter_File>
/export/apps/rDock/src/rDock_2013.1_src/data/scripts/dock_solv.prm

>  <Rbt.Receptor>
prm/pocket_docking_5.prm

>  <SCORE>
-12.7375

>  <SCORE.INTER>
-13.4403

>  <SCORE.INTER.CONST>
1

>  <SCORE.INTER.POLAR>
-0.99107

>  <SCORE.INTER.ROT>
9

>  <SCORE.INTER.SOLV>
9.52715

>  <SCORE.INTER.VDW>
-18.4323

>  <SCORE.INTER.norm>
-0.320007

>  <SCORE.INTRA>
0.702766

>  <SCORE.INTRA.DIHEDRAL>
2.90251

>  <SCORE.INTRA.DIHEDRAL.0>
14.8538

>  <SCORE.INTRA.POLAR>
0

>  <SCORE.INTRA.POLAR.0>
0

>  <SCORE.INTRA.REPUL>
0.0328108

>  <SCORE.INTRA.REPUL.0>
0

>  <SCORE.INTRA.SOLV>
-3.6866

>  <SCORE.INTRA.SOLV.lig_0>
-100.951

>  <SCORE.INTRA.VDW>
0.930757

>  <SCORE.INTRA.VDW.0>
-5.71388

>  <SCORE.INTRA.norm>
0.0167325

>  <SCORE.RESTR>
0

>  <SCORE.RESTR.CAVITY>
0

>  <SCORE.RESTR.norm>
0

>  <SCORE.SYSTEM>
0

>  <SCORE.SYSTEM.CONST>
0

>  <SCORE.SYSTEM.DIHEDRAL>
0

>  <SCORE.SYSTEM.SOLV>
0

>  <SCORE.SYSTEM.norm>
0

>  <SCORE.heavy>
42

>  <SCORE.norm>
-0.303274

>  <RMSD>
10.225

$$$$
3c44_lig
 OpenBabel11021811463D
libRbt.so/2013.1/901 2013/11/27
 42 45  0  0  0  0  0  0  0  0999 V2000
   37.1362   41.8002   -3.5224 C   0  0  2  0  0  0  0  0  0  0  0  0
   36.0720   41.4299   -4.4124 O   0  0  0  0  0  0  0  0  0  0  0  0
   36.6120   38.5730   -7.3681 C   0  0  2  0  0  0  0  0  0  0  0  0
   36.8671   37.7226   -8.5410 N   0  0  0  0  0  0  0  0  0  0  0  0
   39.2855   41.6731   -5.9804 C   0  0  1  0  0  0  0  0  0  0  0  0
   39.4438   44.2271   -7.7542 C   0  0  1  0  0  0  0  0  0  0  0  0
   37.1930   40.7976   -2.3650 C   0  0  2  0  0  0  0  0  0  0  0  0
   37.3094   39.4216   -2.8690 N   0  0  0  0  0  0  0  0  0  0  0  0
   35.6348   39.6984   -7.7198 C   0  0  0  0  0  0  0  0  0  0  0  0
   40.8104   41.7769   -5.9269 C   0  0  2  0  0  0  0  0  0  0  0  0
   41.2071   42.5622   -4.8010 O   0  0  0  0  0  0  0  0  0  0  0  0
   39.7831   44.5569   -9.2116 C   0  0  2  0  0  0  0  0  0  0  0  0
   40.7630   45.6517   -9.2209 N   0  0  0  0  0  0  0  0  0  0  0  0
   35.9502   40.9012   -1.4773 C   0  0  1  0  0  0  0  0  0  0  0  0
   36.1202   40.0644   -0.3292 O   0  0  0  0  0  0  0  0  0  0  0  0
   35.2959   40.4438   -6.4246 C   0  0  2  0  0  0  0  0  0  0  0  0
   34.4052   41.5730   -6.7320 N   0  0  0  0  0  0  0  0  0  0  0  0
   41.0580   42.5825   -7.2007 C   0  0  2  0  0  0  0  0  0  0  0  0
   40.6539   43.9506   -7.0273 O   0  0  0  0  0  0  0  0  0  0  0  0
   38.5343   45.0027   -9.9836 C   0  0  1  0  0  0  0  0  0  0  0  0
   37.6560   43.8942  -10.1952 O   0  0  0  0  0  0  0  0  0  0  0  0
   35.7519   42.3502   -1.0288 C   0  0  2  0  0  0  0  0  0  0  0  0
   34.5314   42.4624   -0.2922 O   0  0  0  0  0  0  0  0  0  0  0  0
   36.5362   40.9757   -5.6958 C   0  0  2  0  0  0  0  0  0  0  0  0
   40.1028   41.8875   -8.1582 C   0  0  2  0  0  0  0  0  0  0  0  0
   39.0091   41.3811   -7.3628 O   0  0  0  0  0  0  0  0  0  0  0  0
   37.7768   46.0915   -9.2218 C   0  0  2  0  0  0  0  0  0  0  0  0
   38.5720   47.2803   -9.2022 O   0  0  0  0  0  0  0  0  0  0  0  0
   35.6993   43.2630   -2.2549 C   0  0  2  0  0  0  0  0  0  0  0  0
   36.9109   43.1323   -3.0245 O   0  0  0  0  0  0  0  0  0  0  0  0
   37.6537   39.9484   -5.5276 C   0  0  2  0  0  0  0  0  0  0  0  0
   38.8542   40.6160   -5.1058 O   0  0  0  0  0  0  0  0  0  0  0  0
   40.8354   40.7502   -8.8732 C   0  0  0  0  0  0  0  0  0  0  0  0
   41.7193   41.3048   -9.8501 O   0  0  0  0  0  0  0  0  0  0  0  0
   37.5070   45.6051   -7.7954 C   0  0  1  0  0  0  0  0  0  0  0  0
   38.7697   45.3461   -7.1569 O   0  0  0  0  0  0  0  0  0  0  0  0
   35.5489   44.7024   -1.7561 C   0  0  0  0  0  0  0  0  0  0  0  0
   35.5041   45.6294   -2.8961 O   0  0  0  0  0  0  0  0  0  0  0  0
   37.9069   39.1942   -6.8384 C   0  0  1  0  0  0  0  0  0  0  0  0
   38.8921   38.1787   -6.6359 O   0  0  0  0  0  0  0  0  0  0  0  0
   36.7309   46.6326   -6.9705 C   0  0  0  0  0  0  0  0  0  0  0  0
   37.4774   47.8983   -6.9479 N   0  0  0  0  0  0  0  0  0  0  0  0
  1  2  1  6  0  0  0
  1  7  1  0  0  0  0
  1 30  1  0  0  0  0
  3  4  1  6  0  0  0
  3  9  1  0  0  0  0
  3 39  1  0  0  0  0
  5 10  1  0  0  0  0
  5 26  1  0  0  0  0
  5 32  1  1  0  0  0
  6 12  1  0  0  0  0
  6 36  1  0  0  0  0
  6 19  1  1  0  0  0
  7  8  1  6  0  0  0
  7 14  1  0  0  0  0
  9 16  1  0  0  0  0
 10 11  1  1  0  0  0
 10 18  1  0  0  0  0
 12 13  1  1  0  0  0
 12 20  1  0  0  0  0
 14 15  1  1  0  0  0
 14 22  1  0  0  0  0
 16 17  1  6  0  0  0
 16 24  1  0  0  0  0
 18 19  1  1  0  0  0
 18 25  1  0  0  0  0
 20 21  1  1  0  0  0
 20 27  1  0  0  0  0
 22 23  1  6  0  0  0
 22 29  1  0  0  0  0
 24  2  1  1  0  0  0
 24 31  1  0  0  0  0
 25 26  1  0  0  0  0
 25 33  1  1  0  0  0
 27 28  1  1  0  0  0
 27 35  1  0  0  0  0
 29 30  1  0  0  0  0
 29 37  1  1  0  0  0
 31 32  1  6  0  0  0
 31 39  1  0  0  0  0
 33 34  1  0  0  0  0
 35 36  1  0  0  0  0
 35 41  1  1  0  0  0
 37 38  1  0  0  0  0
 39 40  1  1  0  0  0
 41 42  1  0  0  0  0
M  END
>  <CHROM.1>
-112.07304650,-149.25396618,-83.96168892,-107.25845983,172.18703781,-74.07775070
179.52144736,-56.12404693,-57.20497170,37.87263416,42.46874055,-5.97342064
2.64257702,-1.05115011,3.00309066

>  <Name>
3c44_lig

>  <RI>
0

>  <Rbt.Current_Directory>
/home/itssahil/PROJECTS/Mol_Feturizer/New_Systems/rnas/3c44

>  <Rbt.Executable>
rbdock ($Id: //depot/dev/client3/rdock/2013.1/src/exe/rbdock.cxx#4 $)

>  <Rbt.Library>
libRbt.so (2013.1, Build901 2013/11/27)

>  <Rbt.Parameter_File>
/export/apps/rDock/src/rDock_2013.1_src/data/scripts/dock_solv.prm

>  <Rbt.Receptor>
prm/blind_docking_100.prm

>  <SCORE>
17.5255

>  <SCORE.INTER>
-3.79169

>  <SCORE.INTER.CONST>
1

>  <SCORE.INTER.POLAR>
-0.979796

>  <SCORE.INTER.ROT>
9

>  <SCORE.INTER.SOLV>
31.8883

>  <SCORE.INTER.VDW>
-19.4912

>  <SCORE.INTER.norm>
-0.0902784

>  <SCORE.INTRA>
18.143

>  <SCORE.INTRA.DIHEDRAL>
5.60013

>  <SCORE.INTRA.DIHEDRAL.0>
14.8538

>  <SCORE.INTRA.POLAR>
0

>  <SCORE.INTRA.POLAR.0>
0

>  <SCORE.INTRA.REPUL>
0

>  <SCORE.INTRA.REPUL.0>
0

>  <SCORE.INTRA.SOLV>
0.305037

>  <SCORE.INTRA.SOLV.lig_0>
-100.951

>  <SCORE.INTRA.VDW>
15.1904

>  <SCORE.INTRA.VDW.0>
-5.71388

>  <SCORE.INTRA.norm>
0.431976

>  <SCORE.RESTR>
3.17421

>  <SCORE.RESTR.CAVITY>
3.17421

>  <SCORE.RESTR.norm>
0.0755764

>  <SCORE.SYSTEM>
0

>  <SCORE.SYSTEM.CONST>
0

>  <SCORE.SYSTEM.DIHEDRAL>
0

>  <SCORE.SYSTEM.SOLV>
0

>  <SCORE.SYSTEM.norm>
0

>  <SCORE.heavy>
42

>  <SCORE.norm>
0.417274

>  <RMSD>
10.376

$$$$
3c44_lig
 OpenBabel11021811463D
libRbt.so/2013.1/901 2013/11/27
 42 45  0  0  0  0  0  0  0  0999 V2000
   42.3461   42.0601  -15.1194 C   0  0  2  0  0  0  0  0  0  0  0  0
   42.1737   41.7858  -16.5182 O   0  0  0  0  0  0  0  0  0  0  0  0
   43.0796   38.6127  -19.0283 C   0  0  2  0  0  0  0  0  0  0  0  0
   43.5978   37.4960  -19.8335 N   0  0  0  0  0  0  0  0  0  0  0  0
   41.4888   38.0906  -14.8708 C   0  0  1  0  0  0  0  0  0  0  0  0
   39.2414   35.0293  -13.1135 C   0  0  1  0  0  0  0  0  0  0  0  0
   41.3303   43.1233  -14.6886 C   0  0  2  0  0  0  0  0  0  0  0  0
   39.9623   42.7120  -15.0358 N   0  0  0  0  0  0  0  0  0  0  0  0
   43.9449   39.8619  -19.2182 C   0  0  0  0  0  0  0  0  0  0  0  0
   41.8790   37.6269  -13.4666 C   0  0  2  0  0  0  0  0  0  0  0  0
   42.8720   36.6027  -13.5490 O   0  0  0  0  0  0  0  0  0  0  0  0
   39.1461   33.6343  -13.7402 C   0  0  2  0  0  0  0  0  0  0  0  0
   39.0528   33.7889  -15.1984 N   0  0  0  0  0  0  0  0  0  0  0  0
   41.6272   44.4747  -15.3434 C   0  0  1  0  0  0  0  0  0  0  0  0
   40.7559   45.4669  -14.7923 O   0  0  0  0  0  0  0  0  0  0  0  0
   43.2626   41.0186  -18.4802 C   0  0  2  0  0  0  0  0  0  0  0  0
   44.0975   42.2245  -18.5885 N   0  0  0  0  0  0  0  0  0  0  0  0
   40.5582   36.9978  -13.0275 C   0  0  2  0  0  0  0  0  0  0  0  0
   40.3340   35.7520  -13.7077 O   0  0  0  0  0  0  0  0  0  0  0  0
   37.9030   32.8865  -13.2404 C   0  0  1  0  0  0  0  0  0  0  0  0
   38.0623   32.5141  -11.8690 O   0  0  0  0  0  0  0  0  0  0  0  0
   43.0818   44.8697  -15.0820 C   0  0  2  0  0  0  0  0  0  0  0  0
   43.3858   46.0766  -15.7863 O   0  0  0  0  0  0  0  0  0  0  0  0
   43.0136   40.7205  -16.9964 C   0  0  2  0  0  0  0  0  0  0  0  0
   39.5731   38.0390  -13.5351 C   0  0  2  0  0  0  0  0  0  0  0  0
   40.1758   38.6541  -14.6943 O   0  0  0  0  0  0  0  0  0  0  0  0
   36.6500   33.7539  -13.3718 C   0  0  2  0  0  0  0  0  0  0  0  0
   36.3625   33.9433  -14.7602 O   0  0  0  0  0  0  0  0  0  0  0  0
   44.0094   43.7496  -15.5552 C   0  0  2  0  0  0  0  0  0  0  0  0
   43.6892   42.5189  -14.8768 O   0  0  0  0  0  0  0  0  0  0  0  0
   42.3623   39.3650  -16.7297 C   0  0  2  0  0  0  0  0  0  0  0  0
   42.4416   39.0671  -15.3262 O   0  0  0  0  0  0  0  0  0  0  0  0
   39.3127   39.0725  -12.4371 C   0  0  0  0  0  0  0  0  0  0  0  0
   40.5331   39.7532  -12.1369 O   0  0  0  0  0  0  0  0  0  0  0  0
   36.9032   35.1009  -12.6896 C   0  0  1  0  0  0  0  0  0  0  0  0
   38.0142   35.7397  -13.3429 O   0  0  0  0  0  0  0  0  0  0  0  0
   45.4457   44.1678  -15.2301 C   0  0  0  0  0  0  0  0  0  0  0  0
   45.8468   45.2980  -16.0803 O   0  0  0  0  0  0  0  0  0  0  0  0
   43.0483   38.2584  -17.5394 C   0  0  1  0  0  0  0  0  0  0  0  0
   42.3683   37.0164  -17.3441 O   0  0  0  0  0  0  0  0  0  0  0  0
   35.6850   36.0228  -12.7586 C   0  0  0  0  0  0  0  0  0  0  0  0
   35.4370   36.3927  -14.1590 N   0  0  0  0  0  0  0  0  0  0  0  0
  1  2  1  6  0  0  0
  1  7  1  0  0  0  0
  1 30  1  0  0  0  0
  3  4  1  6  0  0  0
  3  9  1  0  0  0  0
  3 39  1  0  0  0  0
  5 10  1  0  0  0  0
  5 26  1  0  0  0  0
  5 32  1  1  0  0  0
  6 12  1  0  0  0  0
  6 36  1  0  0  0  0
  6 19  1  6  0  0  0
  7  8  1  6  0  0  0
  7 14  1  0  0  0  0
  9 16  1  0  0  0  0
 10 11  1  6  0  0  0
 10 18  1  0  0  0  0
 12 13  1  6  0  0  0
 12 20  1  0  0  0  0
 14 15  1  1  0  0  0
 14 22  1  0  0  0  0
 16 17  1  1  0  0  0
 16 24  1  0  0  0  0
 18 19  1  6  0  0  0
 18 25  1  0  0  0  0
 20 21  1  1  0  0  0
 20 27  1  0  0  0  0
 22 23  1  6  0  0  0
 22 29  1  0  0  0  0
 24  2  1  6  0  0  0
 24 31  1  0  0  0  0
 25 26  1  0  0  0  0
 25 33  1  1  0  0  0
 27 28  1  6  0  0  0
 27 35  1  0  0  0  0
 29 30  1  0  0  0  0
 29 37  1  1  0  0  0
 31 32  1  1  0  0  0
 31 39  1  0  0  0  0
 33 34  1  0  0  0  0
 35 36  1  0  0  0  0
 35 41  1  6  0  0  0
 37 38  1  0  0  0  0
 39 40  1  6  0  0  0
 41 42  1  0  0  0  0
M  END
>  <CHROM.1>
-175.36025435,167.00483887,-172.70321514,168.49567159,-151.69282201,62.87765703
-68.86503874,159.24733074,-65.98552648,41.05575077,39.05141552,-15.04864465
0.77105991,0.77735156,0.32002898

>  <Name>
3c44_lig

>  <RI>
224

>  <Rbt.Current_Directory>
/home/itssahil/PROJECTS/Mol_Feturizer/New_Systems/rnas/3c44

>  <Rbt.Executable>
rbdock ($Id: //depot/dev/client3/rdock/2013.1/src/exe/rbdock.cxx#4 $)

>  <Rbt.Library>
libRbt.so (2013.1, Build901 2013/11/27)

>  <Rbt.Parameter_File>
/export/apps/rDock/src/rDock_2013.1_src/data/scripts/dock_solv.prm

>  <Rbt.Receptor>
prm/pocket_docking_8.prm

>  <SCORE>
-13.4114

>  <SCORE.INTER>
-11.1462

>  <SCORE.INTER.CONST>
1

>  <SCORE.INTER.POLAR>
0

>  <SCORE.INTER.ROT>
9

>  <SCORE.INTER.SOLV>
7.88575

>  <SCORE.INTER.VDW>
-19.6594

>  <SCORE.INTER.norm>
-0.265386

>  <SCORE.INTRA>
-2.26523

>  <SCORE.INTRA.DIHEDRAL>
-7.0406

>  <SCORE.INTRA.DIHEDRAL.0>
14.8538

>  <SCORE.INTRA.POLAR>
0

>  <SCORE.INTRA.POLAR.0>
0

>  <SCORE.INTRA.REPUL>
0.00869533

>  <SCORE.INTRA.REPUL.0>
0

>  <SCORE.INTRA.SOLV>
-1.16098

>  <SCORE.INTRA.SOLV.lig_0>
-100.951

>  <SCORE.INTRA.VDW>
1.79209

>  <SCORE.INTRA.VDW.0>
-5.71388

>  <SCORE.INTRA.norm>
-0.053934

>  <SCORE.RESTR>
0

>  <SCORE.RESTR.CAVITY>
0

>  <SCORE.RESTR.norm>
0

>  <SCORE.SYSTEM>
0

>  <SCORE.SYSTEM.CONST>
0

>  <SCORE.SYSTEM.DIHEDRAL>
0

>  <SCORE.SYSTEM.SOLV>
0

>  <SCORE.SYSTEM.norm>
0

>  <SCORE.heavy>
42

>  <SCORE.norm>
-0.31932

>  <RMSD>
10.394

$$$$
3c44_lig
 OpenBabel11021811463D
libRbt.so/2013.1/901 2013/11/27
 42 45  0  0  0  0  0  0  0  0999 V2000
   37.2981   38.8848   -3.8700 C   0  0  2  0  0  0  0  0  0  0  0  0
   37.9297   39.9603   -3.1585 O   0  0  0  0  0  0  0  0  0  0  0  0
   34.9743   39.6262   -0.2701 C   0  0  2  0  0  0  0  0  0  0  0  0
   34.0733   39.5817    0.8919 N   0  0  0  0  0  0  0  0  0  0  0  0
   37.1192   42.6795   -3.4966 C   0  0  1  0  0  0  0  0  0  0  0  0
   38.1877   44.1141   -7.3133 C   0  0  1  0  0  0  0  0  0  0  0  0
   38.2388   38.3956   -4.9762 C   0  0  2  0  0  0  0  0  0  0  0  0
   39.5530   38.0350   -4.4250 N   0  0  0  0  0  0  0  0  0  0  0  0
   36.2465   38.8184    0.0023 C   0  0  0  0  0  0  0  0  0  0  0  0
   37.2871   44.1832   -3.7194 C   0  0  2  0  0  0  0  0  0  0  0  0
   36.0353   44.7649   -4.0886 O   0  0  0  0  0  0  0  0  0  0  0  0
   37.2020   44.2592   -8.4774 C   0  0  2  0  0  0  0  0  0  0  0  0
   36.4219   43.0182   -8.5789 N   0  0  0  0  0  0  0  0  0  0  0  0
   38.4263   39.4611   -6.0591 C   0  0  1  0  0  0  0  0  0  0  0  0
   39.1788   38.9053   -7.1418 O   0  0  0  0  0  0  0  0  0  0  0  0
   37.0606   38.7786   -1.2952 C   0  0  2  0  0  0  0  0  0  0  0  0
   38.3223   38.0617   -1.0561 N   0  0  0  0  0  0  0  0  0  0  0  0
   38.1999   44.1612   -4.9439 C   0  0  2  0  0  0  0  0  0  0  0  0
   37.4729   43.7593   -6.1165 O   0  0  0  0  0  0  0  0  0  0  0  0
   37.9401   44.4906   -9.8024 C   0  0  1  0  0  0  0  0  0  0  0  0
   38.5228   45.7963   -9.8279 O   0  0  0  0  0  0  0  0  0  0  0  0
   37.0620   39.9269   -6.5709 C   0  0  2  0  0  0  0  0  0  0  0  0
   37.2382   40.9984   -7.5013 O   0  0  0  0  0  0  0  0  0  0  0  0
   37.3808   40.1737   -1.8463 C   0  0  2  0  0  0  0  0  0  0  0  0
   39.1711   43.0610   -4.5458 C   0  0  2  0  0  0  0  0  0  0  0  0
   38.4454   42.1533   -3.6885 O   0  0  0  0  0  0  0  0  0  0  0  0
   39.0472   43.4544  -10.0031 C   0  0  2  0  0  0  0  0  0  0  0  0
   38.4483   42.1704  -10.2001 O   0  0  0  0  0  0  0  0  0  0  0  0
   36.2086   40.4019   -5.3939 C   0  0  2  0  0  0  0  0  0  0  0  0
   36.0531   39.3399   -4.4320 O   0  0  0  0  0  0  0  0  0  0  0  0
   36.1777   41.1120   -1.9157 C   0  0  2  0  0  0  0  0  0  0  0  0
   36.6333   42.4524   -2.1621 O   0  0  0  0  0  0  0  0  0  0  0  0
   40.3644   43.6756   -3.8110 C   0  0  0  0  0  0  0  0  0  0  0  0
   41.3949   43.9692   -4.7569 O   0  0  0  0  0  0  0  0  0  0  0  0
   39.9466   43.4405   -8.7642 C   0  0  1  0  0  0  0  0  0  0  0  0
   39.1439   43.0880   -7.6236 O   0  0  0  0  0  0  0  0  0  0  0  0
   34.8412   40.8111   -5.9472 C   0  0  0  0  0  0  0  0  0  0  0  0
   34.9558   42.0726   -6.6932 O   0  0  0  0  0  0  0  0  0  0  0  0
   35.3696   41.0646   -0.6135 C   0  0  1  0  0  0  0  0  0  0  0  0
   34.2017   41.8800   -0.7328 O   0  0  0  0  0  0  0  0  0  0  0  0
   41.0964   42.4409   -8.8947 C   0  0  0  0  0  0  0  0  0  0  0  0
   41.3802   42.2131  -10.3185 N   0  0  0  0  0  0  0  0  0  0  0  0
  1  2  1  6  0  0  0
  1  7  1  0  0  0  0
  1 30  1  0  0  0  0
  3  4  1  1  0  0  0
  3  9  1  0  0  0  0
  3 39  1  0  0  0  0
  5 10  1  0  0  0  0
  5 26  1  0  0  0  0
  5 32  1  1  0  0  0
  6 12  1  0  0  0  0
  6 36  1  0  0  0  0
  6 19  1  1  0  0  0
  7  8  1  1  0  0  0
  7 14  1  0  0  0  0
  9 16  1  0  0  0  0
 10 11  1  6  0  0  0
 10 18  1  0  0  0  0
 12 13  1  6  0  0  0
 12 20  1  0  0  0  0
 14 15  1  6  0  0  0
 14 22  1  0  0  0  0
 16 17  1  1  0  0  0
 16 24  1  0  0  0  0
 18 19  1  6  0  0  0
 18 25  1  0  0  0  0
 20 21  1  1  0  0  0
 20 27  1  0  0  0  0
 22 23  1  6  0  0  0
 22 29  1  0  0  0  0
 24  2  1  6  0  0  0
 24 31  1  0  0  0  0
 25 26  1  0  0  0  0
 25 33  1  1  0  0  0
 27 28  1  1  0  0  0
 27 35  1  0  0  0  0
 29 30  1  0  0  0  0
 29 37  1  6  0  0  0
 31 32  1  1  0  0  0
 31 39  1  0  0  0  0
 33 34  1  0  0  0  0
 35 36  1  0  0  0  0
 35 41  1  6  0  0  0
 37 38  1  0  0  0  0
 39 40  1  6  0  0  0
 41 42  1  0  0  0  0
M  END
>  <CHROM.1>
-159.12183768,167.99840182,-155.24588620,162.67143737,37.32140583,-91.90762911
-72.33379758,72.11720082,24.72934588,37.62569146,41.68469209,-5.12592177
-2.26200034,1.03592336,-0.52329980

>  <Name>
3c44_lig

>  <RI>
0

>  <Rbt.Current_Directory>
/home/itssahil/PROJECTS/Mol_Feturizer/New_Systems/rnas/3c44

>  <Rbt.Executable>
rbdock ($Id: //depot/dev/client3/rdock/2013.1/src/exe/rbdock.cxx#4 $)

>  <Rbt.Library>
libRbt.so (2013.1, Build901 2013/11/27)

>  <Rbt.Parameter_File>
/export/apps/rDock/src/rDock_2013.1_src/data/scripts/dock_solv.prm

>  <Rbt.Receptor>
prm/blind_docking_80.prm

>  <SCORE>
7.70617

>  <SCORE.INTER>
-9.69626

>  <SCORE.INTER.CONST>
1

>  <SCORE.INTER.POLAR>
-0.0379177

>  <SCORE.INTER.ROT>
9

>  <SCORE.INTER.SOLV>
18.8113

>  <SCORE.INTER.VDW>
-22.2082

>  <SCORE.INTER.norm>
-0.230863

>  <SCORE.INTRA>
10.8513

>  <SCORE.INTRA.DIHEDRAL>
1.86114

>  <SCORE.INTRA.DIHEDRAL.0>
14.8538

>  <SCORE.INTRA.POLAR>
0

>  <SCORE.INTRA.POLAR.0>
0

>  <SCORE.INTRA.REPUL>
0.714647

>  <SCORE.INTRA.REPUL.0>
0

>  <SCORE.INTRA.SOLV>
3.64892

>  <SCORE.INTRA.SOLV.lig_0>
-100.951

>  <SCORE.INTRA.VDW>
4.52303

>  <SCORE.INTRA.VDW.0>
-5.71388

>  <SCORE.INTRA.norm>
0.258364

>  <SCORE.RESTR>
6.55114

>  <SCORE.RESTR.CAVITY>
6.55114

>  <SCORE.RESTR.norm>
0.155979

>  <SCORE.SYSTEM>
0

>  <SCORE.SYSTEM.CONST>
0

>  <SCORE.SYSTEM.DIHEDRAL>
0

>  <SCORE.SYSTEM.SOLV>
0

>  <SCORE.SYSTEM.norm>
0

>  <SCORE.heavy>
42

>  <SCORE.norm>
0.18348

>  <RMSD>
10.452

$$$$
3c44_lig
 OpenBabel11021811463D
libRbt.so/2013.1/901 2013/11/27
 42 45  0  0  0  0  0  0  0  0999 V2000
   36.6849   39.4250   -3.3068 C   0  0  2  0  0  0  0  0  0  0  0  0
   37.5804   40.2688   -2.5666 O   0  0  0  0  0  0  0  0  0  0  0  0
   34.2266   42.1448   -1.0103 C   0  0  2  0  0  0  0  0  0  0  0  0
   33.1657   42.8745   -0.2990 N   0  0  0  0  0  0  0  0  0  0  0  0
   38.0189   42.8964   -4.0326 C   0  0  1  0  0  0  0  0  0  0  0  0
   38.6957   44.2594   -7.3888 C   0  0  1  0  0  0  0  0  0  0  0  0
   37.4662   38.2281   -3.8591 C   0  0  2  0  0  0  0  0  0  0  0  0
   38.1730   37.5212   -2.7812 N   0  0  0  0  0  0  0  0  0  0  0  0
   34.8834   41.1132   -0.0884 C   0  0  0  0  0  0  0  0  0  0  0  0
   38.9074   44.0600   -4.4750 C   0  0  2  0  0  0  0  0  0  0  0  0
   38.1230   45.0425   -5.1540 O   0  0  0  0  0  0  0  0  0  0  0  0
   37.3464   44.0773   -8.0918 C   0  0  2  0  0  0  0  0  0  0  0  0
   37.4287   42.8850   -8.9466 N   0  0  0  0  0  0  0  0  0  0  0  0
   38.4806   38.6663   -4.9184 C   0  0  1  0  0  0  0  0  0  0  0  0
   39.0694   37.5068   -5.5151 O   0  0  0  0  0  0  0  0  0  0  0  0
   35.8622   40.2899   -0.9322 C   0  0  2  0  0  0  0  0  0  0  0  0
   36.5593   39.3265   -0.0668 N   0  0  0  0  0  0  0  0  0  0  0  0
   39.7853   43.3392   -5.4961 C   0  0  2  0  0  0  0  0  0  0  0  0
   39.0450   43.0497   -6.6932 O   0  0  0  0  0  0  0  0  0  0  0  0
   37.0093   45.2920   -8.9663 C   0  0  1  0  0  0  0  0  0  0  0  0
   36.6944   46.4230   -8.1498 O   0  0  0  0  0  0  0  0  0  0  0  0
   37.7801   39.4960   -5.9960 C   0  0  2  0  0  0  0  0  0  0  0  0
   38.7480   39.9951   -6.9229 O   0  0  0  0  0  0  0  0  0  0  0  0
   36.9054   41.1521   -1.6539 C   0  0  2  0  0  0  0  0  0  0  0  0
   40.0725   42.0455   -4.7504 C   0  0  2  0  0  0  0  0  0  0  0  0
   38.9370   41.7963   -3.8937 O   0  0  0  0  0  0  0  0  0  0  0  0
   38.1824   45.6554   -9.8781 C   0  0  2  0  0  0  0  0  0  0  0  0
   38.3566   44.6148  -10.8440 O   0  0  0  0  0  0  0  0  0  0  0  0
   37.0419   40.6654   -5.3427 C   0  0  2  0  0  0  0  0  0  0  0  0
   36.0873   40.1754   -4.3804 O   0  0  0  0  0  0  0  0  0  0  0  0
   36.3212   42.3490   -2.4014 C   0  0  2  0  0  0  0  0  0  0  0  0
   37.3850   43.2348   -2.7866 O   0  0  0  0  0  0  0  0  0  0  0  0
   41.3552   42.2032   -3.9312 C   0  0  0  0  0  0  0  0  0  0  0  0
   41.7401   40.9270   -3.4151 O   0  0  0  0  0  0  0  0  0  0  0  0
   39.4451   45.8114   -9.0265 C   0  0  1  0  0  0  0  0  0  0  0  0
   39.7051   44.5604   -8.3655 O   0  0  0  0  0  0  0  0  0  0  0  0
   36.3196   41.4358   -6.4509 C   0  0  0  0  0  0  0  0  0  0  0  0
   35.0765   40.7429   -6.8192 O   0  0  0  0  0  0  0  0  0  0  0  0
   35.3063   43.0977   -1.5294 C   0  0  1  0  0  0  0  0  0  0  0  0
   34.7072   44.1583   -2.2774 O   0  0  0  0  0  0  0  0  0  0  0  0
   40.6646   46.1972   -9.8645 C   0  0  0  0  0  0  0  0  0  0  0  0
   40.5756   45.5434  -11.1777 N   0  0  0  0  0  0  0  0  0  0  0  0
  1  2  1  6  0  0  0
  1  7  1  0  0  0  0
  1 30  1  0  0  0  0
  3  4  1  1  0  0  0
  3  9  1  0  0  0  0
  3 39  1  0  0  0  0
  5 10  1  0  0  0  0
  5 26  1  0  0  0  0
  5 32  1  1  0  0  0
  6 12  1  0  0  0  0
  6 36  1  0  0  0  0
  6 19  1  6  0  0  0
  7  8  1  1  0  0  0
  7 14  1  0  0  0  0
  9 16  1  0  0  0  0
 10 11  1  6  0  0  0
 10 18  1  0  0  0  0
 12 13  1  6  0  0  0
 12 20  1  0  0  0  0
 14 15  1  6  0  0  0
 14 22  1  0  0  0  0
 16 17  1  1  0  0  0
 16 24  1  0  0  0  0
 18 19  1  6  0  0  0
 18 25  1  0  0  0  0
 20 21  1  1  0  0  0
 20 27  1  0  0  0  0
 22 23  1  6  0  0  0
 22 29  1  0  0  0  0
 24  2  1  6  0  0  0
 24 31  1  0  0  0  0
 25 26  1  0  0  0  0
 25 33  1  1  0  0  0
 27 28  1  6  0  0  0
 27 35  1  0  0  0  0
 29 30  1  0  0  0  0
 29 37  1  6  0  0  0
 31 32  1  1  0  0  0
 31 39  1  0  0  0  0
 33 34  1  0  0  0  0
 35 36  1  0  0  0  0
 35 41  1  6  0  0  0
 37 38  1  0  0  0  0
 39 40  1  6  0  0  0
 41 42  1  0  0  0  0
M  END
>  <CHROM.1>
-160.53523421,167.91144019,-147.23187353,67.00490956,45.48212873,-170.40926770
79.48505878,85.60225421,-34.88247870,37.72832805,42.25414328,-5.13339882
-2.02972535,0.84272449,-0.66854070

>  <Name>
3c44_lig

>  <RI>
0

>  <Rbt.Current_Directory>
/home/itssahil/PROJECTS/Mol_Feturizer/New_Systems/rnas/3c44

>  <Rbt.Executable>
rbdock ($Id: //depot/dev/client3/rdock/2013.1/src/exe/rbdock.cxx#4 $)

>  <Rbt.Library>
libRbt.so (2013.1, Build901 2013/11/27)

>  <Rbt.Parameter_File>
/export/apps/rDock/src/rDock_2013.1_src/data/scripts/dock_solv.prm

>  <Rbt.Receptor>
prm/blind_docking_80.prm

>  <SCORE>
2.26169

>  <SCORE.INTER>
-10.0764

>  <SCORE.INTER.CONST>
1

>  <SCORE.INTER.POLAR>
-0.523294

>  <SCORE.INTER.ROT>
9

>  <SCORE.INTER.SOLV>
18.862

>  <SCORE.INTER.VDW>
-20.8606

>  <SCORE.INTER.norm>
-0.239914

>  <SCORE.INTRA>
9.78126

>  <SCORE.INTRA.DIHEDRAL>
-0.326069

>  <SCORE.INTRA.DIHEDRAL.0>
14.8538

>  <SCORE.INTRA.POLAR>
0

>  <SCORE.INTRA.POLAR.0>
0

>  <SCORE.INTRA.REPUL>
0.222125

>  <SCORE.INTRA.REPUL.0>
0

>  <SCORE.INTRA.SOLV>
2.48398

>  <SCORE.INTRA.SOLV.lig_0>
-100.951

>  <SCORE.INTRA.VDW>
7.59168

>  <SCORE.INTRA.VDW.0>
-5.71388

>  <SCORE.INTRA.norm>
0.232887

>  <SCORE.RESTR>
2.5568

>  <SCORE.RESTR.CAVITY>
2.5568

>  <SCORE.RESTR.norm>
0.0608761

>  <SCORE.SYSTEM>
0

>  <SCORE.SYSTEM.CONST>
0

>  <SCORE.SYSTEM.DIHEDRAL>
0

>  <SCORE.SYSTEM.SOLV>
0

>  <SCORE.SYSTEM.norm>
0

>  <SCORE.heavy>
42

>  <SCORE.norm>
0.0538497

>  <RMSD>
10.554

$$$$
3c44_lig
 OpenBabel11021811463D
libRbt.so/2013.1/901 2013/11/27
 42 45  0  0  0  0  0  0  0  0999 V2000
   37.6383   38.9934   -3.7981 C   0  0  2  0  0  0  0  0  0  0  0  0
   38.0614   40.2911   -3.3522 O   0  0  0  0  0  0  0  0  0  0  0  0
   35.0356   40.6765   -0.5441 C   0  0  2  0  0  0  0  0  0  0  0  0
   34.1191   40.8550    0.5925 N   0  0  0  0  0  0  0  0  0  0  0  0
   37.6467   43.2536   -3.8072 C   0  0  1  0  0  0  0  0  0  0  0  0
   37.8145   43.7394   -7.9771 C   0  0  1  0  0  0  0  0  0  0  0  0
   38.6210   38.4827   -4.8571 C   0  0  2  0  0  0  0  0  0  0  0  0
   39.9989   38.5005   -4.3452 N   0  0  0  0  0  0  0  0  0  0  0  0
   36.0881   39.6104   -0.2263 C   0  0  0  0  0  0  0  0  0  0  0  0
   36.3660   43.6151   -4.5611 C   0  0  2  0  0  0  0  0  0  0  0  0
   35.6634   42.4262   -4.9281 O   0  0  0  0  0  0  0  0  0  0  0  0
   38.9697   42.9579   -8.6117 C   0  0  2  0  0  0  0  0  0  0  0  0
   40.1171   43.0047   -7.6949 N   0  0  0  0  0  0  0  0  0  0  0  0
   38.5513   39.3248   -6.1335 C   0  0  1  0  0  0  0  0  0  0  0  0
   39.3642   38.7187   -7.1429 O   0  0  0  0  0  0  0  0  0  0  0  0
   36.9045   39.3667   -1.5000 C   0  0  2  0  0  0  0  0  0  0  0  0
   37.9678   38.3908   -1.2169 N   0  0  0  0  0  0  0  0  0  0  0  0
   36.9739   44.2354   -5.8175 C   0  0  2  0  0  0  0  0  0  0  0  0
   37.5479   43.2235   -6.6611 O   0  0  0  0  0  0  0  0  0  0  0  0
   39.3830   43.5738   -9.9548 C   0  0  1  0  0  0  0  0  0  0  0  0
   38.3752   43.3403  -10.9422 O   0  0  0  0  0  0  0  0  0  0  0  0
   37.1042   39.4063   -6.6231 C   0  0  2  0  0  0  0  0  0  0  0  0
   37.0272   40.2826   -7.7506 O   0  0  0  0  0  0  0  0  0  0  0  0
   37.5418   40.6451   -2.0585 C   0  0  2  0  0  0  0  0  0  0  0  0
   38.0830   45.0748   -5.2034 C   0  0  2  0  0  0  0  0  0  0  0  0
   38.4901   44.4058   -3.9901 O   0  0  0  0  0  0  0  0  0  0  0  0
   39.6025   45.0819   -9.8237 C   0  0  2  0  0  0  0  0  0  0  0  0
   40.7546   45.3119   -9.0077 O   0  0  0  0  0  0  0  0  0  0  0  0
   36.2122   39.9344   -5.4986 C   0  0  2  0  0  0  0  0  0  0  0  0
   36.3085   39.0776   -4.3436 O   0  0  0  0  0  0  0  0  0  0  0  0
   36.5808   41.8267   -2.1731 C   0  0  2  0  0  0  0  0  0  0  0  0
   37.3303   43.0270   -2.4226 O   0  0  0  0  0  0  0  0  0  0  0  0
   37.5542   46.4795   -4.9058 C   0  0  0  0  0  0  0  0  0  0  0  0
   38.6471   47.3205   -4.5300 O   0  0  0  0  0  0  0  0  0  0  0  0
   38.3613   45.7120   -9.1862 C   0  0  1  0  0  0  0  0  0  0  0  0
   38.1719   45.1277   -7.8855 O   0  0  0  0  0  0  0  0  0  0  0  0
   34.7723   39.9527   -6.0179 C   0  0  0  0  0  0  0  0  0  0  0  0
   34.5546   41.1379   -6.8598 O   0  0  0  0  0  0  0  0  0  0  0  0
   35.7507   41.9841   -0.8936 C   0  0  1  0  0  0  0  0  0  0  0  0
   34.7978   43.0371   -1.0555 O   0  0  0  0  0  0  0  0  0  0  0  0
   38.4928   47.2284   -9.0390 C   0  0  0  0  0  0  0  0  0  0  0  0
   38.8396   47.8127  -10.3420 N   0  0  0  0  0  0  0  0  0  0  0  0
  1  2  1  6  0  0  0
  1  7  1  0  0  0  0
  1 30  1  0  0  0  0
  3  4  1  1  0  0  0
  3  9  1  0  0  0  0
  3 39  1  0  0  0  0
  5 10  1  0  0  0  0
  5 26  1  0  0  0  0
  5 32  1  1  0  0  0
  6 12  1  0  0  0  0
  6 36  1  0  0  0  0
  6 19  1  1  0  0  0
  7  8  1  1  0  0  0
  7 14  1  0  0  0  0
  9 16  1  0  0  0  0
 10 11  1  6  0  0  0
 10 18  1  0  0  0  0
 12 13  1  1  0  0  0
 12 20  1  0  0  0  0
 14 15  1  6  0  0  0
 14 22  1  0  0  0  0
 16 17  1  1  0  0  0
 16 24  1  0  0  0  0
 18 19  1  6  0  0  0
 18 25  1  0  0  0  0
 20 21  1  6  0  0  0
 20 27  1  0  0  0  0
 22 23  1  6  0  0  0
 22 29  1  0  0  0  0
 24  2  1  6  0  0  0
 24 31  1  0  0  0  0
 25 26  1  0  0  0  0
 25 33  1  1  0  0  0
 27 28  1  1  0  0  0
 27 35  1  0  0  0  0
 29 30  1  0  0  0  0
 29 37  1  6  0  0  0
 31 32  1  1  0  0  0
 31 39  1  0  0  0  0
 33 34  1  0  0  0  0
 35 36  1  0  0  0  0
 35 41  1  1  0  0  0
 37 38  1  0  0  0  0
 39 40  1  6  0  0  0
 41 42  1  0  0  0  0
M  END
>  <CHROM.1>
-158.21314809,70.35901753,152.92964594,165.45175808,10.01842773,-170.91094952
-79.67440843,84.57464310,53.36815956,37.52693687,42.32127416,-5.33647424
-2.50234910,1.21776561,-0.03814771

>  <Name>
3c44_lig

>  <RI>
0

>  <Rbt.Current_Directory>
/home/itssahil/PROJECTS/Mol_Feturizer/New_Systems/rnas/3c44

>  <Rbt.Executable>
rbdock ($Id: //depot/dev/client3/rdock/2013.1/src/exe/rbdock.cxx#4 $)

>  <Rbt.Library>
libRbt.so (2013.1, Build901 2013/11/27)

>  <Rbt.Parameter_File>
/export/apps/rDock/src/rDock_2013.1_src/data/scripts/dock_solv.prm

>  <Rbt.Receptor>
prm/blind_docking_100.prm

>  <SCORE>
11.7368

>  <SCORE.INTER>
-6.60976

>  <SCORE.INTER.CONST>
1

>  <SCORE.INTER.POLAR>
0

>  <SCORE.INTER.ROT>
9

>  <SCORE.INTER.SOLV>
22.4744

>  <SCORE.INTER.VDW>
-21.498

>  <SCORE.INTER.norm>
-0.157375

>  <SCORE.INTRA>
13.7209

>  <SCORE.INTRA.DIHEDRAL>
3.12577

>  <SCORE.INTRA.DIHEDRAL.0>
14.8538

>  <SCORE.INTRA.POLAR>
0

>  <SCORE.INTRA.POLAR.0>
0

>  <SCORE.INTRA.REPUL>
0

>  <SCORE.INTRA.REPUL.0>
0

>  <SCORE.INTRA.SOLV>
0.811802

>  <SCORE.INTRA.SOLV.lig_0>
-100.951

>  <SCORE.INTRA.VDW>
11.7521

>  <SCORE.INTRA.VDW.0>
-5.71388

>  <SCORE.INTRA.norm>
0.326688

>  <SCORE.RESTR>
4.62565

>  <SCORE.RESTR.CAVITY>
4.62565

>  <SCORE.RESTR.norm>
0.110135

>  <SCORE.SYSTEM>
0

>  <SCORE.SYSTEM.CONST>
0

>  <SCORE.SYSTEM.DIHEDRAL>
0

>  <SCORE.SYSTEM.SOLV>
0

>  <SCORE.SYSTEM.norm>
0

>  <SCORE.heavy>
42

>  <SCORE.norm>
0.279448

>  <RMSD>
10.575

$$$$
3c44_lig
 OpenBabel11021811463D
libRbt.so/2013.1/901 2013/11/27
 42 45  0  0  0  0  0  0  0  0999 V2000
   37.1948   40.6726   -2.8280 C   0  0  2  0  0  0  0  0  0  0  0  0
   36.3752   39.8356   -3.6584 O   0  0  0  0  0  0  0  0  0  0  0  0
   36.4605   38.4810   -7.5760 C   0  0  2  0  0  0  0  0  0  0  0  0
   36.5441   38.2018   -9.0178 N   0  0  0  0  0  0  0  0  0  0  0  0
   39.5679   40.5818   -5.6535 C   0  0  1  0  0  0  0  0  0  0  0  0
   38.6568   43.7490   -7.6238 C   0  0  1  0  0  0  0  0  0  0  0  0
   36.8966   40.3643   -1.3570 C   0  0  2  0  0  0  0  0  0  0  0  0
   37.0609   38.9303   -1.0784 N   0  0  0  0  0  0  0  0  0  0  0  0
   35.4855   39.6304   -7.3046 C   0  0  0  0  0  0  0  0  0  0  0  0
   38.7788   41.8300   -5.2557 C   0  0  2  0  0  0  0  0  0  0  0  0
   37.5932   41.9309   -6.0468 O   0  0  0  0  0  0  0  0  0  0  0  0
   38.7874   43.9533   -9.1367 C   0  0  2  0  0  0  0  0  0  0  0  0
   40.0860   44.5858   -9.4066 N   0  0  0  0  0  0  0  0  0  0  0  0
   35.4757   40.7878   -0.9764 C   0  0  1  0  0  0  0  0  0  0  0  0
   35.2984   40.6283    0.4345 O   0  0  0  0  0  0  0  0  0  0  0  0
   35.3301   39.7614   -5.7858 C   0  0  2  0  0  0  0  0  0  0  0  0
   34.4464   40.8975   -5.4835 N   0  0  0  0  0  0  0  0  0  0  0  0
   39.7625   42.9094   -5.7031 C   0  0  2  0  0  0  0  0  0  0  0  0
   39.7920   43.0123   -7.1361 O   0  0  0  0  0  0  0  0  0  0  0  0
   37.6727   44.8621   -9.6710 C   0  0  1  0  0  0  0  0  0  0  0  0
   36.4150   44.1825   -9.6366 O   0  0  0  0  0  0  0  0  0  0  0  0
   35.2508   42.2521   -1.3575 C   0  0  2  0  0  0  0  0  0  0  0  0
   33.8905   42.6116   -1.1020 O   0  0  0  0  0  0  0  0  0  0  0  0
   36.6660   39.9669   -5.0609 C   0  0  2  0  0  0  0  0  0  0  0  0
   41.0713   42.3135   -5.2090 C   0  0  2  0  0  0  0  0  0  0  0  0
   40.9135   40.8783   -5.2364 O   0  0  0  0  0  0  0  0  0  0  0  0
   37.5624   46.1424   -8.8414 C   0  0  2  0  0  0  0  0  0  0  0  0
   38.7362   46.9322   -9.0521 O   0  0  0  0  0  0  0  0  0  0  0  0
   35.5655   42.4491   -2.8413 C   0  0  2  0  0  0  0  0  0  0  0  0
   36.9245   42.0568   -3.1176 O   0  0  0  0  0  0  0  0  0  0  0  0
   37.7613   38.9860   -5.4743 C   0  0  2  0  0  0  0  0  0  0  0  0
   39.0252   39.4418   -4.9647 O   0  0  0  0  0  0  0  0  0  0  0  0
   41.3529   42.8086   -3.7887 C   0  0  0  0  0  0  0  0  0  0  0  0
   41.0259   44.1974   -3.7044 O   0  0  0  0  0  0  0  0  0  0  0  0
   37.4283   45.7677   -7.3631 C   0  0  1  0  0  0  0  0  0  0  0  0
   38.5992   45.0285   -6.9734 O   0  0  0  0  0  0  0  0  0  0  0  0
   35.3733   43.9332   -3.1636 C   0  0  0  0  0  0  0  0  0  0  0  0
   36.2731   44.7498   -2.3362 O   0  0  0  0  0  0  0  0  0  0  0  0
   37.8296   38.8517   -7.0002 C   0  0  1  0  0  0  0  0  0  0  0  0
   38.7981   37.8645   -7.3613 O   0  0  0  0  0  0  0  0  0  0  0  0
   37.2909   46.9972   -6.4644 C   0  0  0  0  0  0  0  0  0  0  0  0
   37.1577   46.5626   -5.0669 N   0  0  0  0  0  0  0  0  0  0  0  0
  1  2  1  6  0  0  0
  1  7  1  0  0  0  0
  1 30  1  0  0  0  0
  3  4  1  6  0  0  0
  3  9  1  0  0  0  0
  3 39  1  0  0  0  0
  5 10  1  0  0  0  0
  5 26  1  0  0  0  0
  5 32  1  1  0  0  0
  6 12  1  0  0  0  0
  6 36  1  0  0  0  0
  6 19  1  1  0  0  0
  7  8  1  6  0  0  0
  7 14  1  0  0  0  0
  9 16  1  0  0  0  0
 10 11  1  6  0  0  0
 10 18  1  0  0  0  0
 12 13  1  1  0  0  0
 12 20  1  0  0  0  0
 14 15  1  1  0  0  0
 14 22  1  0  0  0  0
 16 17  1  6  0  0  0
 16 24  1  0  0  0  0
 18 19  1  6  0  0  0
 18 25  1  0  0  0  0
 20 21  1  1  0  0  0
 20 27  1  0  0  0  0
 22 23  1  6  0  0  0
 22 29  1  0  0  0  0
 24  2  1  1  0  0  0
 24 31  1  0  0  0  0
 25 26  1  0  0  0  0
 25 33  1  1  0  0  0
 27 28  1  1  0  0  0
 27 35  1  0  0  0  0
 29 30  1  0  0  0  0
 29 37  1  1  0  0  0
 31 32  1  6  0  0  0
 31 39  1  0  0  0  0
 33 34  1  0  0  0  0
 35 36  1  0  0  0  0
 35 41  1  1  0  0  0
 37 38  1  0  0  0  0
 39 40  1  1  0  0  0
 41 42  1  0  0  0  0
M  END
>  <CHROM.1>
-174.86431453,73.92701119,174.70633237,78.45487381,-146.95574891,-41.48372725
59.62238333,-73.38245207,179.61073195,37.58798730,42.17776005,-5.34415966
2.66093105,-1.20278803,-3.02534579

>  <Name>
3c44_lig

>  <RI>
0

>  <Rbt.Current_Directory>
/home/itssahil/PROJECTS/Mol_Feturizer/New_Systems/rnas/3c44

>  <Rbt.Executable>
rbdock ($Id: //depot/dev/client3/rdock/2013.1/src/exe/rbdock.cxx#4 $)

>  <Rbt.Library>
libRbt.so (2013.1, Build901 2013/11/27)

>  <Rbt.Parameter_File>
/export/apps/rDock/src/rDock_2013.1_src/data/scripts/dock_solv.prm

>  <Rbt.Receptor>
prm/blind_docking_80.prm

>  <SCORE>
-2.91253

>  <SCORE.INTER>
-9.95674

>  <SCORE.INTER.CONST>
1

>  <SCORE.INTER.POLAR>
-1.42575

>  <SCORE.INTER.ROT>
9

>  <SCORE.INTER.SOLV>
30.6768

>  <SCORE.INTER.VDW>
-21.7109

>  <SCORE.INTER.norm>
-0.237065

>  <SCORE.INTRA>
5.18527

>  <SCORE.INTRA.DIHEDRAL>
-5.69189

>  <SCORE.INTRA.DIHEDRAL.0>
14.8538

>  <SCORE.INTRA.POLAR>
0

>  <SCORE.INTRA.POLAR.0>
0

>  <SCORE.INTRA.REPUL>
0

>  <SCORE.INTRA.REPUL.0>
0

>  <SCORE.INTRA.SOLV>
0.172591

>  <SCORE.INTRA.SOLV.lig_0>
-100.951

>  <SCORE.INTRA.VDW>
7.94492

>  <SCORE.INTRA.VDW.0>
-5.71388

>  <SCORE.INTRA.norm>
0.123459

>  <SCORE.RESTR>
1.85894

>  <SCORE.RESTR.CAVITY>
1.85894

>  <SCORE.RESTR.norm>
0.0442604

>  <SCORE.SYSTEM>
0

>  <SCORE.SYSTEM.CONST>
0

>  <SCORE.SYSTEM.DIHEDRAL>
0

>  <SCORE.SYSTEM.SOLV>
0

>  <SCORE.SYSTEM.norm>
0

>  <SCORE.heavy>
42

>  <SCORE.norm>
-0.0693459

>  <RMSD>
10.602

$$$$
3c44_lig
 OpenBabel11021811463D
libRbt.so/2013.1/901 2013/11/27
 42 45  0  0  0  0  0  0  0  0999 V2000
   42.2516   44.4703  -15.3669 C   0  0  2  0  0  0  0  0  0  0  0  0
   42.3774   45.9001  -15.3258 O   0  0  0  0  0  0  0  0  0  0  0  0
   39.6580   48.5876  -13.7223 C   0  0  2  0  0  0  0  0  0  0  0  0
   38.5781   49.5068  -13.3313 N   0  0  0  0  0  0  0  0  0  0  0  0
   39.3309   44.2349  -12.9963 C   0  0  1  0  0  0  0  0  0  0  0  0
   37.5675   42.0703   -9.8981 C   0  0  1  0  0  0  0  0  0  0  0  0
   43.6169   43.8567  -15.6948 C   0  0  2  0  0  0  0  0  0  0  0  0
   44.6415   44.3229  -14.7494 N   0  0  0  0  0  0  0  0  0  0  0  0
   40.2248   48.9725  -15.0919 C   0  0  0  0  0  0  0  0  0  0  0  0
   38.9219   42.7908  -13.2896 C   0  0  2  0  0  0  0  0  0  0  0  0
   37.6021   42.7586  -13.8363 O   0  0  0  0  0  0  0  0  0  0  0  0
   36.1893   42.3998   -9.3152 C   0  0  2  0  0  0  0  0  0  0  0  0
   36.0548   43.8614   -9.2463 N   0  0  0  0  0  0  0  0  0  0  0  0
   44.0560   44.2046  -17.1193 C   0  0  1  0  0  0  0  0  0  0  0  0
   45.2517   43.4840  -17.4330 O   0  0  0  0  0  0  0  0  0  0  0  0
   41.4388   48.0776  -15.3626 C   0  0  2  0  0  0  0  0  0  0  0  0
   41.9750   48.3763  -16.6991 N   0  0  0  0  0  0  0  0  0  0  0  0
   38.8783   42.2416  -11.8651 C   0  0  2  0  0  0  0  0  0  0  0  0
   37.7327   42.7444  -11.1580 O   0  0  0  0  0  0  0  0  0  0  0  0
   36.0323   41.8204   -7.9032 C   0  0  1  0  0  0  0  0  0  0  0  0
   35.9265   40.3954   -7.9572 O   0  0  0  0  0  0  0  0  0  0  0  0
   42.9544   43.8230  -18.1098 C   0  0  2  0  0  0  0  0  0  0  0  0
   43.3217   44.2493  -19.4245 O   0  0  0  0  0  0  0  0  0  0  0  0
   41.1112   46.5813  -15.2837 C   0  0  2  0  0  0  0  0  0  0  0  0
   40.1426   42.8608  -11.2906 C   0  0  2  0  0  0  0  0  0  0  0  0
   40.3544   44.1052  -11.9921 O   0  0  0  0  0  0  0  0  0  0  0  0
   37.2256   42.1915   -7.0211 C   0  0  2  0  0  0  0  0  0  0  0  0
   37.2037   43.6019   -6.7835 O   0  0  0  0  0  0  0  0  0  0  0  0
   41.6422   44.4926  -17.6991 C   0  0  2  0  0  0  0  0  0  0  0  0
   41.2796   44.0972  -16.3614 O   0  0  0  0  0  0  0  0  0  0  0  0
   40.3268   46.1757  -14.0376 C   0  0  2  0  0  0  0  0  0  0  0  0
   39.8286   44.8381  -14.2034 O   0  0  0  0  0  0  0  0  0  0  0  0
   41.3190   41.9048  -11.4995 C   0  0  0  0  0  0  0  0  0  0  0  0
   41.5859   41.7910  -12.8991 O   0  0  0  0  0  0  0  0  0  0  0  0
   38.5179   41.7899   -7.7370 C   0  0  1  0  0  0  0  0  0  0  0  0
   38.5875   42.5035   -8.9841 O   0  0  0  0  0  0  0  0  0  0  0  0
   40.5629   44.0445  -18.6879 C   0  0  0  0  0  0  0  0  0  0  0  0
   40.3344   42.5976  -18.5638 O   0  0  0  0  0  0  0  0  0  0  0  0
   39.1624   47.1406  -13.7846 C   0  0  1  0  0  0  0  0  0  0  0  0
   38.4974   46.7961  -12.5672 O   0  0  0  0  0  0  0  0  0  0  0  0
   39.7624   42.1094   -6.9078 C   0  0  0  0  0  0  0  0  0  0  0  0
   40.9042   41.3504   -7.4369 N   0  0  0  0  0  0  0  0  0  0  0  0
  1  2  1  6  0  0  0
  1  7  1  0  0  0  0
  1 30  1  0  0  0  0
  3  4  1  6  0  0  0
  3  9  1  0  0  0  0
  3 39  1  0  0  0  0
  5 10  1  0  0  0  0
  5 26  1  0  0  0  0
  5 32  1  6  0  0  0
  6 12  1  0  0  0  0
  6 36  1  0  0  0  0
  6 19  1  6  0  0  0
  7  8  1  1  0  0  0
  7 14  1  0  0  0  0
  9 16  1  0  0  0  0
 10 11  1  1  0  0  0
 10 18  1  0  0  0  0
 12 13  1  1  0  0  0
 12 20  1  0  0  0  0
 14 15  1  6  0  0  0
 14 22  1  0  0  0  0
 16 17  1  6  0  0  0
 16 24  1  0  0  0  0
 18 19  1  1  0  0  0
 18 25  1  0  0  0  0
 20 21  1  6  0  0  0
 20 27  1  0  0  0  0
 22 23  1  6  0  0  0
 22 29  1  0  0  0  0
 24  2  1  1  0  0  0
 24 31  1  0  0  0  0
 25 26  1  0  0  0  0
 25 33  1  6  0  0  0
 27 28  1  6  0  0  0
 27 35  1  0  0  0  0
 29 30  1  0  0  0  0
 29 37  1  6  0  0  0
 31 32  1  6  0  0  0
 31 39  1  0  0  0  0
 33 34  1  0  0  0  0
 35 36  1  0  0  0  0
 35 41  1  1  0  0  0
 37 38  1  0  0  0  0
 39 40  1  1  0  0  0
 41 42  1  0  0  0  0
M  END
>  <CHROM.1>
168.61491903,-176.22123878,-167.67799971,170.77086157,-175.39542506,66.44504088
64.94850013,166.94522408,162.83264055,40.06999408,44.11676544,-13.07929434
-0.74438317,-0.89562214,2.60560790

>  <Name>
3c44_lig

>  <RI>
224

>  <Rbt.Current_Directory>
/home/itssahil/PROJECTS/Mol_Feturizer/New_Systems/rnas/3c44

>  <Rbt.Executable>
rbdock ($Id: //depot/dev/client3/rdock/2013.1/src/exe/rbdock.cxx#4 $)

>  <Rbt.Library>
libRbt.so (2013.1, Build901 2013/11/27)

>  <Rbt.Parameter_File>
/export/apps/rDock/src/rDock_2013.1_src/data/scripts/dock_solv.prm

>  <Rbt.Receptor>
prm/pocket_docking_8.prm

>  <SCORE>
-11.0732

>  <SCORE.INTER>
-6.89181

>  <SCORE.INTER.CONST>
1

>  <SCORE.INTER.POLAR>
-0.868749

>  <SCORE.INTER.ROT>
9

>  <SCORE.INTER.SOLV>
14.4765

>  <SCORE.INTER.VDW>
-16.1242

>  <SCORE.INTER.norm>
-0.164091

>  <SCORE.INTRA>
-4.18143

>  <SCORE.INTRA.DIHEDRAL>
-10.4193

>  <SCORE.INTRA.DIHEDRAL.0>
14.8538

>  <SCORE.INTRA.POLAR>
0

>  <SCORE.INTRA.POLAR.0>
0

>  <SCORE.INTRA.REPUL>
0.00387235

>  <SCORE.INTRA.REPUL.0>
0

>  <SCORE.INTRA.SOLV>
-4.10945

>  <SCORE.INTRA.SOLV.lig_0>
-100.951

>  <SCORE.INTRA.VDW>
3.06359

>  <SCORE.INTRA.VDW.0>
-5.71388

>  <SCORE.INTRA.norm>
-0.0995579

>  <SCORE.RESTR>
0

>  <SCORE.RESTR.CAVITY>
0

>  <SCORE.RESTR.norm>
0

>  <SCORE.SYSTEM>
0

>  <SCORE.SYSTEM.CONST>
0

>  <SCORE.SYSTEM.DIHEDRAL>
0

>  <SCORE.SYSTEM.SOLV>
0

>  <SCORE.SYSTEM.norm>
0

>  <SCORE.heavy>
42

>  <SCORE.norm>
-0.263649

>  <RMSD>
10.606

$$$$
3c44_lig
 OpenBabel11021811463D
libRbt.so/2013.1/901 2013/11/27
 42 45  0  0  0  0  0  0  0  0999 V2000
   36.9945   39.8356   -3.8919 C   0  0  2  0  0  0  0  0  0  0  0  0
   38.3504   39.6234   -4.3143 O   0  0  0  0  0  0  0  0  0  0  0  0
   39.6285   42.4248   -1.5380 C   0  0  2  0  0  0  0  0  0  0  0  0
   40.2542   43.2929   -0.5286 N   0  0  0  0  0  0  0  0  0  0  0  0
   40.2880   42.4206   -6.1215 C   0  0  1  0  0  0  0  0  0  0  0  0
   39.6826   45.0574   -9.0319 C   0  0  1  0  0  0  0  0  0  0  0  0
   36.0479   39.1549   -4.8862 C   0  0  2  0  0  0  0  0  0  0  0  0
   36.3907   37.7345   -5.0477 N   0  0  0  0  0  0  0  0  0  0  0  0
   39.4706   40.9994   -1.0007 C   0  0  0  0  0  0  0  0  0  0  0  0
   41.2289   42.1587   -7.2985 C   0  0  2  0  0  0  0  0  0  0  0  0
   42.4883   42.7928   -7.0673 O   0  0  0  0  0  0  0  0  0  0  0  0
   40.4185   45.6939  -10.2156 C   0  0  2  0  0  0  0  0  0  0  0  0
   41.5182   46.5136   -9.6886 N   0  0  0  0  0  0  0  0  0  0  0  0
   36.0929   39.8386   -6.2550 C   0  0  1  0  0  0  0  0  0  0  0  0
   35.0836   39.2736   -7.0973 O   0  0  0  0  0  0  0  0  0  0  0  0
   38.6770   40.1958   -2.0363 C   0  0  2  0  0  0  0  0  0  0  0  0
   38.5574   38.8019   -1.5827 N   0  0  0  0  0  0  0  0  0  0  0  0
   40.4876   42.9215   -8.3947 C   0  0  2  0  0  0  0  0  0  0  0  0
   40.6200   44.3404   -8.2095 O   0  0  0  0  0  0  0  0  0  0  0  0
   39.4799   46.5904  -11.0338 C   0  0  1  0  0  0  0  0  0  0  0  0
   38.5306   45.7967  -11.7506 O   0  0  0  0  0  0  0  0  0  0  0  0
   35.8432   41.3393   -6.0942 C   0  0  2  0  0  0  0  0  0  0  0  0
   35.9949   41.9897   -7.3586 O   0  0  0  0  0  0  0  0  0  0  0  0
   39.3202   40.2099   -3.4286 C   0  0  2  0  0  0  0  0  0  0  0  0
   39.0552   42.5021   -8.1040 C   0  0  2  0  0  0  0  0  0  0  0  0
   38.9751   42.2448   -6.6853 O   0  0  0  0  0  0  0  0  0  0  0  0
   38.7230   47.5642  -10.1292 C   0  0  2  0  0  0  0  0  0  0  0  0
   39.6523   48.5037   -9.5815 O   0  0  0  0  0  0  0  0  0  0  0  0
   36.8429   41.9201   -5.0929 C   0  0  2  0  0  0  0  0  0  0  0  0
   36.7229   41.2479   -3.8237 O   0  0  0  0  0  0  0  0  0  0  0  0
   39.7222   41.5990   -3.9199 C   0  0  2  0  0  0  0  0  0  0  0  0
   40.5624   41.4692   -5.0783 O   0  0  0  0  0  0  0  0  0  0  0  0
   38.7181   41.2461   -8.9105 C   0  0  0  0  0  0  0  0  0  0  0  0
   39.3738   40.1216   -8.3202 O   0  0  0  0  0  0  0  0  0  0  0  0
   38.0386   46.7747   -9.0102 C   0  0  1  0  0  0  0  0  0  0  0  0
   39.0509   46.0869   -8.2543 O   0  0  0  0  0  0  0  0  0  0  0  0
   36.5242   43.4084   -4.9290 C   0  0  0  0  0  0  0  0  0  0  0  0
   37.4834   44.0310   -4.0053 O   0  0  0  0  0  0  0  0  0  0  0  0
   40.4592   42.3764   -2.8228 C   0  0  1  0  0  0  0  0  0  0  0  0
   40.7468   43.7024   -3.2723 O   0  0  0  0  0  0  0  0  0  0  0  0
   37.2393   47.6777   -8.0699 C   0  0  0  0  0  0  0  0  0  0  0  0
   38.1666   48.5335   -7.3167 N   0  0  0  0  0  0  0  0  0  0  0  0
  1  2  1  6  0  0  0
  1  7  1  0  0  0  0
  1 30  1  0  0  0  0
  3  4  1  1  0  0  0
  3  9  1  0  0  0  0
  3 39  1  0  0  0  0
  5 10  1  0  0  0  0
  5 26  1  0  0  0  0
  5 32  1  1  0  0  0
  6 12  1  0  0  0  0
  6 36  1  0  0  0  0
  6 19  1  1  0  0  0
  7  8  1  6  0  0  0
  7 14  1  0  0  0  0
  9 16  1  0  0  0  0
 10 11  1  1  0  0  0
 10 18  1  0  0  0  0
 12 13  1  1  0  0  0
 12 20  1  0  0  0  0
 14 15  1  6  0  0  0
 14 22  1  0  0  0  0
 16 17  1  1  0  0  0
 16 24  1  0  0  0  0
 18 19  1  1  0  0  0
 18 25  1  0  0  0  0
 20 21  1  1  0  0  0
 20 27  1  0  0  0  0
 22 23  1  6  0  0  0
 22 29  1  0  0  0  0
 24  2  1  6  0  0  0
 24 31  1  0  0  0  0
 25 26  1  0  0  0  0
 25 33  1  6  0  0  0
 27 28  1  1  0  0  0
 27 35  1  0  0  0  0
 29 30  1  0  0  0  0
 29 37  1  1  0  0  0
 31 32  1  6  0  0  0
 31 39  1  0  0  0  0
 33 34  1  0  0  0  0
 35 36  1  0  0  0  0
 35 41  1  1  0  0  0
 37 38  1  0  0  0  0
 39 40  1  6  0  0  0
 41 42  1  0  0  0  0
M  END
>  <CHROM.1>
-179.07475688,-179.00215920,-105.46092150,-166.39201195,29.48106694,74.02898680
-178.26102979,138.93672229,-67.64531327,38.75251909,42.86765263,-6.24290293
1.80553782,0.90185258,2.16801172

>  <Name>
3c44_lig

>  <RI>
0

>  <Rbt.Current_Directory>
/home/itssahil/PROJECTS/Mol_Feturizer/New_Systems/rnas/3c44

>  <Rbt.Executable>
rbdock ($Id: //depot/dev/client3/rdock/2013.1/src/exe/rbdock.cxx#4 $)

>  <Rbt.Library>
libRbt.so (2013.1, Build901 2013/11/27)

>  <Rbt.Parameter_File>
/export/apps/rDock/src/rDock_2013.1_src/data/scripts/dock_solv.prm

>  <Rbt.Receptor>
prm/blind_docking_100.prm

>  <SCORE>
17.2332

>  <SCORE.INTER>
3.82327

>  <SCORE.INTER.CONST>
1

>  <SCORE.INTER.POLAR>
-0.825703

>  <SCORE.INTER.ROT>
9

>  <SCORE.INTER.SOLV>
33.2706

>  <SCORE.INTER.VDW>
-15.389

>  <SCORE.INTER.norm>
0.0910303

>  <SCORE.INTRA>
6.60486

>  <SCORE.INTRA.DIHEDRAL>
2.74524

>  <SCORE.INTRA.DIHEDRAL.0>
14.8538

>  <SCORE.INTRA.POLAR>
0

>  <SCORE.INTRA.POLAR.0>
0

>  <SCORE.INTRA.REPUL>
0

>  <SCORE.INTRA.REPUL.0>
0

>  <SCORE.INTRA.SOLV>
0.0706133

>  <SCORE.INTRA.SOLV.lig_0>
-100.951

>  <SCORE.INTRA.VDW>
5.19693

>  <SCORE.INTRA.VDW.0>
-5.71388

>  <SCORE.INTRA.norm>
0.157259

>  <SCORE.RESTR>
6.80511

>  <SCORE.RESTR.CAVITY>
6.80511

>  <SCORE.RESTR.norm>
0.162026

>  <SCORE.SYSTEM>
0

>  <SCORE.SYSTEM.CONST>
0

>  <SCORE.SYSTEM.DIHEDRAL>
0

>  <SCORE.SYSTEM.SOLV>
0

>  <SCORE.SYSTEM.norm>
0

>  <SCORE.heavy>
42

>  <SCORE.norm>
0.410315

>  <RMSD>
10.651

$$$$
3c44_lig
 OpenBabel11021811463D
libRbt.so/2013.1/901 2013/11/27
 42 45  0  0  0  0  0  0  0  0999 V2000
   37.1876   41.2218   -3.5762 C   0  0  2  0  0  0  0  0  0  0  0  0
   36.2836   40.4763   -4.4062 O   0  0  0  0  0  0  0  0  0  0  0  0
   38.0451   38.5554   -7.6305 C   0  0  2  0  0  0  0  0  0  0  0  0
   38.5915   38.0345   -8.8931 N   0  0  0  0  0  0  0  0  0  0  0  0
   38.3563   42.6739   -6.4826 C   0  0  1  0  0  0  0  0  0  0  0  0
   37.5146   46.5344   -7.0367 C   0  0  1  0  0  0  0  0  0  0  0  0
   37.2641   40.5583   -2.1971 C   0  0  2  0  0  0  0  0  0  0  0  0
   37.6236   39.1380   -2.3182 N   0  0  0  0  0  0  0  0  0  0  0  0
   36.5317   38.7613   -7.7417 C   0  0  0  0  0  0  0  0  0  0  0  0
   39.1729   43.9388   -6.2140 C   0  0  2  0  0  0  0  0  0  0  0  0
   38.5898   44.6773   -5.1387 O   0  0  0  0  0  0  0  0  0  0  0  0
   36.0573   46.8995   -6.7355 C   0  0  2  0  0  0  0  0  0  0  0  0
   35.2673   46.6902   -7.9567 N   0  0  0  0  0  0  0  0  0  0  0  0
   35.9339   40.6749   -1.4486 C   0  0  1  0  0  0  0  0  0  0  0  0
   36.0997   40.1859   -0.1142 O   0  0  0  0  0  0  0  0  0  0  0  0
   36.0110   39.1522   -6.3545 C   0  0  2  0  0  0  0  0  0  0  0  0
   34.5669   39.4188   -6.4344 N   0  0  0  0  0  0  0  0  0  0  0  0
   38.9212   44.6894   -7.5202 C   0  0  2  0  0  0  0  0  0  0  0  0
   37.5783   45.1987   -7.5667 O   0  0  0  0  0  0  0  0  0  0  0  0
   35.9310   48.3679   -6.3089 C   0  0  1  0  0  0  0  0  0  0  0  0
   36.4918   48.5596   -5.0075 O   0  0  0  0  0  0  0  0  0  0  0  0
   35.4893   42.1381   -1.4052 C   0  0  2  0  0  0  0  0  0  0  0  0
   34.1955   42.2293   -0.8031 O   0  0  0  0  0  0  0  0  0  0  0  0
   36.7114   40.3883   -5.7766 C   0  0  2  0  0  0  0  0  0  0  0  0
   39.0706   43.5569   -8.5238 C   0  0  2  0  0  0  0  0  0  0  0  0
   38.6716   42.3446   -7.8481 O   0  0  0  0  0  0  0  0  0  0  0  0
   36.6501   49.2903   -7.2947 C   0  0  2  0  0  0  0  0  0  0  0  0
   35.9517   49.2673   -8.5428 O   0  0  0  0  0  0  0  0  0  0  0  0
   35.4365   42.6994   -2.8269 C   0  0  2  0  0  0  0  0  0  0  0  0
   36.7276   42.5809   -3.4565 O   0  0  0  0  0  0  0  0  0  0  0  0
   38.2357   40.3416   -5.8593 C   0  0  2  0  0  0  0  0  0  0  0  0
   38.7682   41.6438   -5.5671 O   0  0  0  0  0  0  0  0  0  0  0  0
   40.5269   43.4745   -8.9865 C   0  0  0  0  0  0  0  0  0  0  0  0
   41.3473   43.0885   -7.8816 O   0  0  0  0  0  0  0  0  0  0  0  0
   38.0885   48.7990   -7.4776 C   0  0  1  0  0  0  0  0  0  0  0  0
   38.0484   47.4586   -7.9981 O   0  0  0  0  0  0  0  0  0  0  0  0
   35.0352   44.1735   -2.7294 C   0  0  0  0  0  0  0  0  0  0  0  0
   33.6410   44.2880   -2.2778 O   0  0  0  0  0  0  0  0  0  0  0  0
   38.6957   39.8877   -7.2498 C   0  0  1  0  0  0  0  0  0  0  0  0
   40.1195   39.7651   -7.2780 O   0  0  0  0  0  0  0  0  0  0  0  0
   38.8851   49.6844   -8.4367 C   0  0  0  0  0  0  0  0  0  0  0  0
   38.5044   49.3644   -9.8196 N   0  0  0  0  0  0  0  0  0  0  0  0
  1  2  1  6  0  0  0
  1  7  1  0  0  0  0
  1 30  1  0  0  0  0
  3  4  1  6  0  0  0
  3  9  1  0  0  0  0
  3 39  1  0  0  0  0
  5 10  1  0  0  0  0
  5 26  1  0  0  0  0
  5 32  1  1  0  0  0
  6 12  1  0  0  0  0
  6 36  1  0  0  0  0
  6 19  1  6  0  0  0
  7  8  1  6  0  0  0
  7 14  1  0  0  0  0
  9 16  1  0  0  0  0
 10 11  1  1  0  0  0
 10 18  1  0  0  0  0
 12 13  1  6  0  0  0
 12 20  1  0  0  0  0
 14 15  1  1  0  0  0
 14 22  1  0  0  0  0
 16 17  1  6  0  0  0
 16 24  1  0  0  0  0
 18 19  1  1  0  0  0
 18 25  1  0  0  0  0
 20 21  1  1  0  0  0
 20 27  1  0  0  0  0
 22 23  1  6  0  0  0
 22 29  1  0  0  0  0
 24  2  1  1  0  0  0
 24 31  1  0  0  0  0
 25 26  1  0  0  0  0
 25 33  1  1  0  0  0
 27 28  1  6  0  0  0
 27 35  1  0  0  0  0
 29 30  1  0  0  0  0
 29 37  1  1  0  0  0
 31 32  1  6  0  0  0
 31 39  1  0  0  0  0
 33 34  1  0  0  0  0
 35 36  1  0  0  0  0
 35 41  1  6  0  0  0
 37 38  1  0  0  0  0
 39 40  1  1  0  0  0
 41 42  1  0  0  0  0
M  END
>  <CHROM.1>
-142.30981684,-170.18013874,-164.30090962,91.37467907,157.40688663,66.05329891
-68.47730039,-61.48279748,-77.73033567,37.30612694,43.37575659,-5.81519917
1.75008279,-1.00216629,2.84706443

>  <Name>
3c44_lig

>  <RI>
0

>  <Rbt.Current_Directory>
/home/itssahil/PROJECTS/Mol_Feturizer/New_Systems/rnas/3c44

>  <Rbt.Executable>
rbdock ($Id: //depot/dev/client3/rdock/2013.1/src/exe/rbdock.cxx#4 $)

>  <Rbt.Library>
libRbt.so (2013.1, Build901 2013/11/27)

>  <Rbt.Parameter_File>
/export/apps/rDock/src/rDock_2013.1_src/data/scripts/dock_solv.prm

>  <Rbt.Receptor>
prm/blind_docking_100.prm

>  <SCORE>
15.5349

>  <SCORE.INTER>
2.84073

>  <SCORE.INTER.CONST>
1

>  <SCORE.INTER.POLAR>
-0.684664

>  <SCORE.INTER.ROT>
9

>  <SCORE.INTER.SOLV>
28.0655

>  <SCORE.INTER.VDW>
-14.7791

>  <SCORE.INTER.norm>
0.0676363

>  <SCORE.INTRA>
6.25912

>  <SCORE.INTRA.DIHEDRAL>
-0.567947

>  <SCORE.INTRA.DIHEDRAL.0>
14.8538

>  <SCORE.INTRA.POLAR>
0

>  <SCORE.INTRA.POLAR.0>
0

>  <SCORE.INTRA.REPUL>
0

>  <SCORE.INTRA.REPUL.0>
0

>  <SCORE.INTRA.SOLV>
-1.78225

>  <SCORE.INTRA.SOLV.lig_0>
-100.951

>  <SCORE.INTRA.VDW>
7.43422

>  <SCORE.INTRA.VDW.0>
-5.71388

>  <SCORE.INTRA.norm>
0.149027

>  <SCORE.RESTR>
6.43501

>  <SCORE.RESTR.CAVITY>
6.43501

>  <SCORE.RESTR.norm>
0.153215

>  <SCORE.SYSTEM>
0

>  <SCORE.SYSTEM.CONST>
0

>  <SCORE.SYSTEM.DIHEDRAL>
0

>  <SCORE.SYSTEM.SOLV>
0

>  <SCORE.SYSTEM.norm>
0

>  <SCORE.heavy>
42

>  <SCORE.norm>
0.369878

>  <RMSD>
10.659

$$$$
3c44_lig
 OpenBabel11021811463D
libRbt.so/2013.1/901 2013/11/27
 42 45  0  0  0  0  0  0  0  0999 V2000
   35.3964   36.2186  -12.8311 C   0  0  2  0  0  0  0  0  0  0  0  0
   36.2430   35.8261  -13.9225 O   0  0  0  0  0  0  0  0  0  0  0  0
   39.9655   34.0765  -14.4432 C   0  0  2  0  0  0  0  0  0  0  0  0
   41.3455   33.5672  -14.4542 N   0  0  0  0  0  0  0  0  0  0  0  0
   37.1090   32.2487  -11.7374 C   0  0  1  0  0  0  0  0  0  0  0  0
   37.0740   28.3625  -10.2995 C   0  0  1  0  0  0  0  0  0  0  0  0
   34.0330   36.6471  -13.3838 C   0  0  2  0  0  0  0  0  0  0  0  0
   33.4500   35.5875  -14.2196 N   0  0  0  0  0  0  0  0  0  0  0  0
   39.9552   35.6077  -14.4704 C   0  0  0  0  0  0  0  0  0  0  0  0
   36.1787   31.9711  -10.5557 C   0  0  2  0  0  0  0  0  0  0  0  0
   36.8490   32.2623   -9.3278 O   0  0  0  0  0  0  0  0  0  0  0  0
   38.3079   27.6930   -9.6855 C   0  0  2  0  0  0  0  0  0  0  0  0
   39.4974   28.1696  -10.4046 N   0  0  0  0  0  0  0  0  0  0  0  0
   34.1458   37.9304  -14.2105 C   0  0  1  0  0  0  0  0  0  0  0  0
   32.8346   38.3762  -14.5699 O   0  0  0  0  0  0  0  0  0  0  0  0
   38.4988   36.0618  -14.6148 C   0  0  2  0  0  0  0  0  0  0  0  0
   38.4421   37.5311  -14.5831 N   0  0  0  0  0  0  0  0  0  0  0  0
   36.0358   30.4565  -10.6914 C   0  0  2  0  0  0  0  0  0  0  0  0
   37.2443   29.7907  -10.2899 O   0  0  0  0  0  0  0  0  0  0  0  0
   38.2304   26.1660   -9.8127 C   0  0  1  0  0  0  0  0  0  0  0  0
   37.2249   25.6428   -8.9409 O   0  0  0  0  0  0  0  0  0  0  0  0
   34.8480   39.0153  -13.3918 C   0  0  2  0  0  0  0  0  0  0  0  0
   35.0497   40.1750  -14.2038 O   0  0  0  0  0  0  0  0  0  0  0  0
   37.5850   35.5072  -13.5149 C   0  0  2  0  0  0  0  0  0  0  0  0
   35.8606   30.3285  -12.1964 C   0  0  2  0  0  0  0  0  0  0  0  0
   36.5740   31.4320  -12.7954 O   0  0  0  0  0  0  0  0  0  0  0  0
   37.9017   25.7500  -11.2475 C   0  0  2  0  0  0  0  0  0  0  0  0
   39.0112   26.0769  -12.0891 O   0  0  0  0  0  0  0  0  0  0  0  0
   36.1974   38.4912  -12.8982 C   0  0  2  0  0  0  0  0  0  0  0  0
   36.0094   37.3014  -12.1067 O   0  0  0  0  0  0  0  0  0  0  0  0
   37.7294   34.0055  -13.2774 C   0  0  2  0  0  0  0  0  0  0  0  0
   37.0601   33.6503  -12.0565 O   0  0  0  0  0  0  0  0  0  0  0  0
   34.3711   30.3839  -12.5428 C   0  0  0  0  0  0  0  0  0  0  0  0
   33.7091   29.2701  -11.9394 O   0  0  0  0  0  0  0  0  0  0  0  0
   36.6450   26.4944  -11.7062 C   0  0  1  0  0  0  0  0  0  0  0  0
   36.9085   27.9076  -11.6520 O   0  0  0  0  0  0  0  0  0  0  0  0
   36.8390   39.5900  -12.0469 C   0  0  0  0  0  0  0  0  0  0  0  0
   38.1212   39.1216  -11.5015 O   0  0  0  0  0  0  0  0  0  0  0  0
   39.2067   33.6020  -13.2012 C   0  0  1  0  0  0  0  0  0  0  0  0
   39.3200   32.1834  -13.0684 O   0  0  0  0  0  0  0  0  0  0  0  0
   36.2355   26.1163  -13.1302 C   0  0  0  0  0  0  0  0  0  0  0  0
   34.9413   26.7383  -13.4426 N   0  0  0  0  0  0  0  0  0  0  0  0
  1  2  1  6  0  0  0
  1  7  1  0  0  0  0
  1 30  1  0  0  0  0
  3  4  1  1  0  0  0
  3  9  1  0  0  0  0
  3 39  1  0  0  0  0
  5 10  1  0  0  0  0
  5 26  1  0  0  0  0
  5 32  1  6  0  0  0
  6 12  1  0  0  0  0
  6 36  1  0  0  0  0
  6 19  1  6  0  0  0
  7  8  1  6  0  0  0
  7 14  1  0  0  0  0
  9 16  1  0  0  0  0
 10 11  1  1  0  0  0
 10 18  1  0  0  0  0
 12 13  1  6  0  0  0
 12 20  1  0  0  0  0
 14 15  1  1  0  0  0
 14 22  1  0  0  0  0
 16 17  1  1  0  0  0
 16 24  1  0  0  0  0
 18 19  1  6  0  0  0
 18 25  1  0  0  0  0
 20 21  1  1  0  0  0
 20 27  1  0  0  0  0
 22 23  1  6  0  0  0
 22 29  1  0  0  0  0
 24  2  1  6  0  0  0
 24 31  1  0  0  0  0
 25 26  1  0  0  0  0
 25 33  1  1  0  0  0
 27 28  1  6  0  0  0
 27 35  1  0  0  0  0
 29 30  1  0  0  0  0
 29 37  1  1  0  0  0
 31 32  1  1  0  0  0
 31 39  1  0  0  0  0
 33 34  1  0  0  0  0
 35 36  1  0  0  0  0
 35 41  1  6  0  0  0
 37 38  1  0  0  0  0
 39 40  1  6  0  0  0
 41 42  1  0  0  0  0
M  END
>  <CHROM.1>
175.30697231,-170.83031192,-172.24171779,174.73470119,-141.30635374,-62.75921483
177.87574689,179.00074565,173.19117172,36.84758169,32.70300599,-12.40150937
1.67330572,0.03780291,-0.22867379

>  <Name>
3c44_lig

>  <RI>
224

>  <Rbt.Current_Directory>
/home/itssahil/PROJECTS/Mol_Feturizer/New_Systems/rnas/3c44

>  <Rbt.Executable>
rbdock ($Id: //depot/dev/client3/rdock/2013.1/src/exe/rbdock.cxx#4 $)

>  <Rbt.Library>
libRbt.so (2013.1, Build901 2013/11/27)

>  <Rbt.Parameter_File>
/export/apps/rDock/src/rDock_2013.1_src/data/scripts/dock_solv.prm

>  <Rbt.Receptor>
prm/pocket_docking_8.prm

>  <SCORE>
-10.0694

>  <SCORE.INTER>
-9.11925

>  <SCORE.INTER.CONST>
1

>  <SCORE.INTER.POLAR>
-0.751453

>  <SCORE.INTER.ROT>
9

>  <SCORE.INTER.SOLV>
26.7812

>  <SCORE.INTER.VDW>
-22.1017

>  <SCORE.INTER.norm>
-0.217125

>  <SCORE.INTRA>
-1.06046

>  <SCORE.INTRA.DIHEDRAL>
-8.10596

>  <SCORE.INTRA.DIHEDRAL.0>
14.8538

>  <SCORE.INTRA.POLAR>
0

>  <SCORE.INTRA.POLAR.0>
0

>  <SCORE.INTRA.REPUL>
0.00157153

>  <SCORE.INTRA.REPUL.0>
0

>  <SCORE.INTRA.SOLV>
-0.456642

>  <SCORE.INTRA.SOLV.lig_0>
-100.951

>  <SCORE.INTRA.VDW>
3.21299

>  <SCORE.INTRA.VDW.0>
-5.71388

>  <SCORE.INTRA.norm>
-0.025249

>  <SCORE.RESTR>
0.110357

>  <SCORE.RESTR.CAVITY>
0.110357

>  <SCORE.RESTR.norm>
0.00262754

>  <SCORE.SYSTEM>
0

>  <SCORE.SYSTEM.CONST>
0

>  <SCORE.SYSTEM.DIHEDRAL>
0

>  <SCORE.SYSTEM.SOLV>
0

>  <SCORE.SYSTEM.norm>
0

>  <SCORE.heavy>
42

>  <SCORE.norm>
-0.239747

>  <RMSD>
10.668

$$$$
3c44_lig
 OpenBabel11021811463D
libRbt.so/2013.1/901 2013/11/27
 42 45  0  0  0  0  0  0  0  0999 V2000
   36.6755   39.4776   -3.4245 C   0  0  2  0  0  0  0  0  0  0  0  0
   37.5750   40.4001   -2.7908 O   0  0  0  0  0  0  0  0  0  0  0  0
   34.2788   41.9625   -0.8202 C   0  0  2  0  0  0  0  0  0  0  0  0
   33.2505   42.5948    0.0205 N   0  0  0  0  0  0  0  0  0  0  0  0
   37.7213   42.9475   -4.2039 C   0  0  1  0  0  0  0  0  0  0  0  0
   38.3167   43.6393   -8.1192 C   0  0  1  0  0  0  0  0  0  0  0  0
   37.4637   38.2482   -3.8884 C   0  0  2  0  0  0  0  0  0  0  0  0
   38.2134   37.6546   -2.7719 N   0  0  0  0  0  0  0  0  0  0  0  0
   35.1435   41.0095    0.0100 C   0  0  0  0  0  0  0  0  0  0  0  0
   38.1585   44.2063   -4.9544 C   0  0  2  0  0  0  0  0  0  0  0  0
   37.0661   44.7252   -5.7154 O   0  0  0  0  0  0  0  0  0  0  0  0
   39.3840   43.3011   -9.1652 C   0  0  2  0  0  0  0  0  0  0  0  0
   40.7060   43.4590   -8.5434 N   0  0  0  0  0  0  0  0  0  0  0  0
   38.4398   38.6042   -5.0125 C   0  0  1  0  0  0  0  0  0  0  0  0
   39.0337   37.4048   -5.5183 O   0  0  0  0  0  0  0  0  0  0  0  0
   36.0831   40.2745   -0.9518 C   0  0  2  0  0  0  0  0  0  0  0  0
   36.9739   39.3926   -0.1826 N   0  0  0  0  0  0  0  0  0  0  0  0
   39.1784   43.5934   -5.9119 C   0  0  2  0  0  0  0  0  0  0  0  0
   38.5222   42.8374   -6.9429 O   0  0  0  0  0  0  0  0  0  0  0  0
   39.2902   44.2395  -10.3755 C   0  0  1  0  0  0  0  0  0  0  0  0
   38.1166   43.9519  -11.1403 O   0  0  0  0  0  0  0  0  0  0  0  0
   37.6941   39.3202   -6.1401 C   0  0  2  0  0  0  0  0  0  0  0  0
   38.6262   39.7482   -7.1366 O   0  0  0  0  0  0  0  0  0  0  0  0
   36.9383   41.2248   -1.7992 C   0  0  2  0  0  0  0  0  0  0  0  0
   39.9067   42.6459   -4.9717 C   0  0  2  0  0  0  0  0  0  0  0  0
   38.9547   42.2454   -3.9624 O   0  0  0  0  0  0  0  0  0  0  0  0
   39.2425   45.7031   -9.9337 C   0  0  2  0  0  0  0  0  0  0  0  0
   40.5062   46.0552   -9.3636 O   0  0  0  0  0  0  0  0  0  0  0  0
   36.9523   40.5322   -5.5744 C   0  0  2  0  0  0  0  0  0  0  0  0
   36.0342   40.1168   -4.5440 O   0  0  0  0  0  0  0  0  0  0  0  0
   36.1512   42.3514   -2.4655 C   0  0  2  0  0  0  0  0  0  0  0  0
   37.0670   43.3309   -2.9818 O   0  0  0  0  0  0  0  0  0  0  0  0
   41.1015   43.3678   -4.3450 C   0  0  0  0  0  0  0  0  0  0  0  0
   40.6271   44.4727   -3.5722 O   0  0  0  0  0  0  0  0  0  0  0  0
   38.1240   45.8757   -8.9026 C   0  0  1  0  0  0  0  0  0  0  0  0
   38.4113   45.0307   -7.7745 O   0  0  0  0  0  0  0  0  0  0  0  0
   36.1849   41.1861   -6.7264 C   0  0  0  0  0  0  0  0  0  0  0  0
   35.3085   42.2476   -6.2106 O   0  0  0  0  0  0  0  0  0  0  0  0
   35.1868   43.0089   -1.4712 C   0  0  1  0  0  0  0  0  0  0  0  0
   34.3982   43.9982   -2.1363 O   0  0  0  0  0  0  0  0  0  0  0  0
   37.9960   47.3224   -8.4240 C   0  0  0  0  0  0  0  0  0  0  0  0
   36.8942   47.4161   -7.4562 N   0  0  0  0  0  0  0  0  0  0  0  0
  1  2  1  6  0  0  0
  1  7  1  0  0  0  0
  1 30  1  0  0  0  0
  3  4  1  1  0  0  0
  3  9  1  0  0  0  0
  3 39  1  0  0  0  0
  5 10  1  0  0  0  0
  5 26  1  0  0  0  0
  5 32  1  1  0  0  0
  6 12  1  0  0  0  0
  6 36  1  0  0  0  0
  6 19  1  1  0  0  0
  7  8  1  1  0  0  0
  7 14  1  0  0  0  0
  9 16  1  0  0  0  0
 10 11  1  6  0  0  0
 10 18  1  0  0  0  0
 12 13  1  1  0  0  0
 12 20  1  0  0  0  0
 14 15  1  6  0  0  0
 14 22  1  0  0  0  0
 16 17  1  1  0  0  0
 16 24  1  0  0  0  0
 18 19  1  6  0  0  0
 18 25  1  0  0  0  0
 20 21  1  1  0  0  0
 20 27  1  0  0  0  0
 22 23  1  6  0  0  0
 22 29  1  0  0  0  0
 24  2  1  6  0  0  0
 24 31  1  0  0  0  0
 25 26  1  0  0  0  0
 25 33  1  1  0  0  0
 27 28  1  1  0  0  0
 27 35  1  0  0  0  0
 29 30  1  0  0  0  0
 29 37  1  6  0  0  0
 31 32  1  1  0  0  0
 31 39  1  0  0  0  0
 33 34  1  0  0  0  0
 35 36  1  0  0  0  0
 35 41  1  1  0  0  0
 37 38  1  0  0  0  0
 39 40  1  6  0  0  0
 41 42  1  0  0  0  0
M  END
>  <CHROM.1>
-152.10590901,155.71386638,100.97458170,94.33652725,46.24388558,62.21999965
172.36005660,76.72719343,179.12906343,37.67475578,42.42495771,-5.17510347
-2.24366326,1.02655292,-0.41062545

>  <Name>
3c44_lig

>  <RI>
0

>  <Rbt.Current_Directory>
/home/itssahil/PROJECTS/Mol_Feturizer/New_Systems/rnas/3c44

>  <Rbt.Executable>
rbdock ($Id: //depot/dev/client3/rdock/2013.1/src/exe/rbdock.cxx#4 $)

>  <Rbt.Library>
libRbt.so (2013.1, Build901 2013/11/27)

>  <Rbt.Parameter_File>
/export/apps/rDock/src/rDock_2013.1_src/data/scripts/dock_solv.prm

>  <Rbt.Receptor>
prm/blind_docking_80.prm

>  <SCORE>
-2.0808

>  <SCORE.INTER>
-12.7193

>  <SCORE.INTER.CONST>
1

>  <SCORE.INTER.POLAR>
-0.551263

>  <SCORE.INTER.ROT>
9

>  <SCORE.INTER.SOLV>
19.3145

>  <SCORE.INTER.VDW>
-22.6801

>  <SCORE.INTER.norm>
-0.30284

>  <SCORE.INTRA>
7.80823

>  <SCORE.INTRA.DIHEDRAL>
3.29457

>  <SCORE.INTRA.DIHEDRAL.0>
14.8538

>  <SCORE.INTRA.POLAR>
0

>  <SCORE.INTRA.POLAR.0>
0

>  <SCORE.INTRA.REPUL>
0.200699

>  <SCORE.INTRA.REPUL.0>
0

>  <SCORE.INTRA.SOLV>
2.72414

>  <SCORE.INTRA.SOLV.lig_0>
-100.951

>  <SCORE.INTRA.VDW>
3.79538

>  <SCORE.INTRA.VDW.0>
-5.71388

>  <SCORE.INTRA.norm>
0.18591

>  <SCORE.RESTR>
2.83027

>  <SCORE.RESTR.CAVITY>
2.83027

>  <SCORE.RESTR.norm>
0.0673873

>  <SCORE.SYSTEM>
0

>  <SCORE.SYSTEM.CONST>
0

>  <SCORE.SYSTEM.DIHEDRAL>
0

>  <SCORE.SYSTEM.SOLV>
0

>  <SCORE.SYSTEM.norm>
0

>  <SCORE.heavy>
42

>  <SCORE.norm>
-0.049543

>  <RMSD>
10.688

$$$$
3c44_lig
 OpenBabel11021811463D
libRbt.so/2013.1/901 2013/11/27
 42 45  0  0  0  0  0  0  0  0999 V2000
   38.9835   39.2529   -3.6915 C   0  0  2  0  0  0  0  0  0  0  0  0
   38.9293   40.5287   -3.0350 O   0  0  0  0  0  0  0  0  0  0  0  0
   36.5066   38.8078   -0.1438 C   0  0  2  0  0  0  0  0  0  0  0  0
   35.7298   38.3433    1.0158 N   0  0  0  0  0  0  0  0  0  0  0  0
   37.0152   42.4626   -3.4258 C   0  0  1  0  0  0  0  0  0  0  0  0
   38.2426   44.4560   -6.9050 C   0  0  1  0  0  0  0  0  0  0  0  0
   40.0162   39.3148   -4.8219 C   0  0  2  0  0  0  0  0  0  0  0  0
   41.3212   39.7635   -4.3153 N   0  0  0  0  0  0  0  0  0  0  0  0
   38.0050   38.8009    0.1726 C   0  0  0  0  0  0  0  0  0  0  0  0
   37.1951   43.9804   -3.3719 C   0  0  2  0  0  0  0  0  0  0  0  0
   35.9566   44.6296   -3.6661 O   0  0  0  0  0  0  0  0  0  0  0  0
   37.3500   44.6453   -8.1359 C   0  0  2  0  0  0  0  0  0  0  0  0
   36.6372   43.3852   -8.3873 N   0  0  0  0  0  0  0  0  0  0  0  0
   39.5627   40.2577   -5.9392 C   0  0  1  0  0  0  0  0  0  0  0  0
   40.4758   40.1614   -7.0366 O   0  0  0  0  0  0  0  0  0  0  0  0
   38.7560   39.1427   -1.1186 C   0  0  2  0  0  0  0  0  0  0  0  0
   40.1987   39.2059   -0.8399 N   0  0  0  0  0  0  0  0  0  0  0  0
   38.1429   44.1690   -4.5546 C   0  0  2  0  0  0  0  0  0  0  0  0
   37.4488   43.9892   -5.8000 O   0  0  0  0  0  0  0  0  0  0  0  0
   38.1830   44.9993   -9.3748 C   0  0  1  0  0  0  0  0  0  0  0  0
   38.7066   46.3252   -9.2621 O   0  0  0  0  0  0  0  0  0  0  0  0
   38.1586   39.8707   -6.4071 C   0  0  2  0  0  0  0  0  0  0  0  0
   37.6952   40.8191   -7.3719 O   0  0  0  0  0  0  0  0  0  0  0  0
   38.3123   40.4744   -1.7368 C   0  0  2  0  0  0  0  0  0  0  0  0
   39.0981   43.0070   -4.3323 C   0  0  2  0  0  0  0  0  0  0  0  0
   38.3445   41.9674   -3.6715 O   0  0  0  0  0  0  0  0  0  0  0  0
   39.3482   44.0241   -9.5508 C   0  0  2  0  0  0  0  0  0  0  0  0
   38.8255   42.7351   -9.8846 O   0  0  0  0  0  0  0  0  0  0  0  0
   37.2079   39.8482   -5.2092 C   0  0  2  0  0  0  0  0  0  0  0  0
   37.6837   38.9205   -4.2141 O   0  0  0  0  0  0  0  0  0  0  0  0
   36.7985   40.6368   -1.8567 C   0  0  2  0  0  0  0  0  0  0  0  0
   36.4899   42.0054   -2.1673 O   0  0  0  0  0  0  0  0  0  0  0  0
   40.2718   43.4702   -3.4667 C   0  0  0  0  0  0  0  0  0  0  0  0
   40.7698   44.7085   -3.9782 O   0  0  0  0  0  0  0  0  0  0  0  0
   40.1428   43.9569   -8.2439 C   0  0  1  0  0  0  0  0  0  0  0  0
   39.2661   43.4928   -7.2021 O   0  0  0  0  0  0  0  0  0  0  0  0
   35.8316   39.4105   -5.7170 C   0  0  0  0  0  0  0  0  0  0  0  0
   35.9113   38.0587   -6.2890 O   0  0  0  0  0  0  0  0  0  0  0  0
   36.0982   40.2242   -0.5566 C   0  0  1  0  0  0  0  0  0  0  0  0
   34.6802   40.2987   -0.7200 O   0  0  0  0  0  0  0  0  0  0  0  0
   41.3431   43.0148   -8.3440 C   0  0  0  0  0  0  0  0  0  0  0  0
   41.9718   42.8901   -7.0216 N   0  0  0  0  0  0  0  0  0  0  0  0
  1  2  1  6  0  0  0
  1  7  1  0  0  0  0
  1 30  1  0  0  0  0
  3  4  1  1  0  0  0
  3  9  1  0  0  0  0
  3 39  1  0  0  0  0
  5 10  1  0  0  0  0
  5 26  1  0  0  0  0
  5 32  1  1  0  0  0
  6 12  1  0  0  0  0
  6 36  1  0  0  0  0
  6 19  1  1  0  0  0
  7  8  1  1  0  0  0
  7 14  1  0  0  0  0
  9 16  1  0  0  0  0
 10 11  1  6  0  0  0
 10 18  1  0  0  0  0
 12 13  1  6  0  0  0
 12 20  1  0  0  0  0
 14 15  1  6  0  0  0
 14 22  1  0  0  0  0
 16 17  1  1  0  0  0
 16 24  1  0  0  0  0
 18 19  1  6  0  0  0
 18 25  1  0  0  0  0
 20 21  1  1  0  0  0
 20 27  1  0  0  0  0
 22 23  1  6  0  0  0
 22 29  1  0  0  0  0
 24  2  1  6  0  0  0
 24 31  1  0  0  0  0
 25 26  1  0  0  0  0
 25 33  1  1  0  0  0
 27 28  1  1  0  0  0
 27 35  1  0  0  0  0
 29 30  1  0  0  0  0
 29 37  1  6  0  0  0
 31 32  1  1  0  0  0
 31 39  1  0  0  0  0
 33 34  1  0  0  0  0
 35 36  1  0  0  0  0
 35 41  1  6  0  0  0
 37 38  1  0  0  0  0
 39 40  1  6  0  0  0
 41 42  1  0  0  0  0
M  END
>  <CHROM.1>
-162.34006227,-154.57131498,-163.18680084,166.93060152,36.99677508,-47.27904304
61.35798802,62.52107962,-174.06995464,38.26445357,41.69190105,-4.80267242
-1.98104224,0.97775220,-0.66480324

>  <Name>
3c44_lig

>  <RI>
0

>  <Rbt.Current_Directory>
/home/itssahil/PROJECTS/Mol_Feturizer/New_Systems/rnas/3c44

>  <Rbt.Executable>
rbdock ($Id: //depot/dev/client3/rdock/2013.1/src/exe/rbdock.cxx#4 $)

>  <Rbt.Library>
libRbt.so (2013.1, Build901 2013/11/27)

>  <Rbt.Parameter_File>
/export/apps/rDock/src/rDock_2013.1_src/data/scripts/dock_solv.prm

>  <Rbt.Receptor>
prm/blind_docking_100.prm

>  <SCORE>
24.4096

>  <SCORE.INTER>
-7.24578

>  <SCORE.INTER.CONST>
1

>  <SCORE.INTER.POLAR>
-1.32889

>  <SCORE.INTER.ROT>
9

>  <SCORE.INTER.SOLV>
21.884

>  <SCORE.INTER.VDW>
-17.2955

>  <SCORE.INTER.norm>
-0.172518

>  <SCORE.INTRA>
24.0829

>  <SCORE.INTRA.DIHEDRAL>
-5.20766

>  <SCORE.INTRA.DIHEDRAL.0>
14.8538

>  <SCORE.INTRA.POLAR>
0

>  <SCORE.INTRA.POLAR.0>
0

>  <SCORE.INTRA.REPUL>
0.650679

>  <SCORE.INTRA.REPUL.0>
0

>  <SCORE.INTRA.SOLV>
4.65163

>  <SCORE.INTRA.SOLV.lig_0>
-100.951

>  <SCORE.INTRA.VDW>
21.1075

>  <SCORE.INTRA.VDW.0>
-5.71388

>  <SCORE.INTRA.norm>
0.573403

>  <SCORE.RESTR>
7.57246

>  <SCORE.RESTR.CAVITY>
7.57246

>  <SCORE.RESTR.norm>
0.180297

>  <SCORE.SYSTEM>
0

>  <SCORE.SYSTEM.CONST>
0

>  <SCORE.SYSTEM.DIHEDRAL>
0

>  <SCORE.SYSTEM.SOLV>
0

>  <SCORE.SYSTEM.norm>
0

>  <SCORE.heavy>
42

>  <SCORE.norm>
0.581181

>  <RMSD>
10.700

$$$$
3c44_lig
 OpenBabel11021811463D
libRbt.so/2013.1/901 2013/11/27
 42 45  0  0  0  0  0  0  0  0999 V2000
   37.3251   39.9300   -3.4475 C   0  0  2  0  0  0  0  0  0  0  0  0
   36.7887   41.2597   -3.3710 O   0  0  0  0  0  0  0  0  0  0  0  0
   34.1076   41.7794   -0.2515 C   0  0  2  0  0  0  0  0  0  0  0  0
   33.3291   42.0035    0.9764 N   0  0  0  0  0  0  0  0  0  0  0  0
   36.8336   43.9828   -3.7301 C   0  0  1  0  0  0  0  0  0  0  0  0
   38.3890   44.8309   -7.5835 C   0  0  1  0  0  0  0  0  0  0  0  0
   38.8218   40.0112   -3.7658 C   0  0  2  0  0  0  0  0  0  0  0  0
   39.5189   40.8638   -2.7921 N   0  0  0  0  0  0  0  0  0  0  0  0
   35.1607   40.6896   -0.0314 C   0  0  0  0  0  0  0  0  0  0  0  0
   37.3977   45.3619   -4.0749 C   0  0  2  0  0  0  0  0  0  0  0  0
   36.3605   46.1988   -4.5902 O   0  0  0  0  0  0  0  0  0  0  0  0
   37.4884   45.2166   -8.7616 C   0  0  2  0  0  0  0  0  0  0  0  0
   36.4352   44.2000   -8.8895 N   0  0  0  0  0  0  0  0  0  0  0  0
   39.0624   40.5610   -5.1740 C   0  0  1  0  0  0  0  0  0  0  0  0
   40.4564   40.4697   -5.4836 O   0  0  0  0  0  0  0  0  0  0  0  0
   35.8227   40.4008   -1.3828 C   0  0  2  0  0  0  0  0  0  0  0  0
   36.8850   39.4002   -1.2001 N   0  0  0  0  0  0  0  0  0  0  0  0
   38.3342   44.9778   -5.2188 C   0  0  2  0  0  0  0  0  0  0  0  0
   37.5882   44.6499   -6.4024 O   0  0  0  0  0  0  0  0  0  0  0  0
   38.2846   45.2731  -10.0719 C   0  0  1  0  0  0  0  0  0  0  0  0
   39.1640   46.4008  -10.0735 O   0  0  0  0  0  0  0  0  0  0  0  0
   38.2585   39.7503   -6.1922 C   0  0  2  0  0  0  0  0  0  0  0  0
   38.3991   40.3342   -7.4899 O   0  0  0  0  0  0  0  0  0  0  0  0
   36.4267   41.6507   -2.0350 C   0  0  2  0  0  0  0  0  0  0  0  0
   38.9645   43.7167   -4.6492 C   0  0  2  0  0  0  0  0  0  0  0  0
   37.9853   43.1201   -3.7714 O   0  0  0  0  0  0  0  0  0  0  0  0
   39.1141   44.0028  -10.2663 C   0  0  2  0  0  0  0  0  0  0  0  0
   38.2282   42.9017  -10.4872 O   0  0  0  0  0  0  0  0  0  0  0  0
   36.7833   39.7405   -5.7888 C   0  0  2  0  0  0  0  0  0  0  0  0
   36.6328   39.1856   -4.4672 O   0  0  0  0  0  0  0  0  0  0  0  0
   35.4902   42.8569   -2.0657 C   0  0  2  0  0  0  0  0  0  0  0  0
   36.2383   44.0309   -2.4217 O   0  0  0  0  0  0  0  0  0  0  0  0
   40.2377   44.0839   -3.8840 C   0  0  0  0  0  0  0  0  0  0  0  0
   41.3590   43.9779   -4.7640 O   0  0  0  0  0  0  0  0  0  0  0  0
   39.9610   43.7647   -9.0133 C   0  0  1  0  0  0  0  0  0  0  0  0
   39.0765   43.6074   -7.8898 O   0  0  0  0  0  0  0  0  0  0  0  0
   36.0294   38.8805   -6.8064 C   0  0  0  0  0  0  0  0  0  0  0  0
   34.5824   39.1117   -6.6887 O   0  0  0  0  0  0  0  0  0  0  0  0
   34.8130   43.0599   -0.7052 C   0  0  1  0  0  0  0  0  0  0  0  0
   33.8760   44.1366   -0.7813 O   0  0  0  0  0  0  0  0  0  0  0  0
   40.8395   42.5191   -9.1365 C   0  0  0  0  0  0  0  0  0  0  0  0
   41.6022   42.3402   -7.8931 N   0  0  0  0  0  0  0  0  0  0  0  0
  1  2  1  6  0  0  0
  1  7  1  0  0  0  0
  1 30  1  0  0  0  0
  3  4  1  1  0  0  0
  3  9  1  0  0  0  0
  3 39  1  0  0  0  0
  5 10  1  0  0  0  0
  5 26  1  0  0  0  0
  5 32  1  1  0  0  0
  6 12  1  0  0  0  0
  6 36  1  0  0  0  0
  6 19  1  1  0  0  0
  7  8  1  1  0  0  0
  7 14  1  0  0  0  0
  9 16  1  0  0  0  0
 10 11  1  6  0  0  0
 10 18  1  0  0  0  0
 12 13  1  6  0  0  0
 12 20  1  0  0  0  0
 14 15  1  6  0  0  0
 14 22  1  0  0  0  0
 16 17  1  1  0  0  0
 16 24  1  0  0  0  0
 18 19  1  6  0  0  0
 18 25  1  0  0  0  0
 20 21  1  1  0  0  0
 20 27  1  0  0  0  0
 22 23  1  6  0  0  0
 22 29  1  0  0  0  0
 24  2  1  6  0  0  0
 24 31  1  0  0  0  0
 25 26  1  0  0  0  0
 25 33  1  1  0  0  0
 27 28  1  1  0  0  0
 27 35  1  0  0  0  0
 29 30  1  0  0  0  0
 29 37  1  6  0  0  0
 31 32  1  1  0  0  0
 31 39  1  0  0  0  0
 33 34  1  0  0  0  0
 35 36  1  0  0  0  0
 35 41  1  6  0  0  0
 37 38  1  0  0  0  0
 39 40  1  6  0  0  0
 41 42  1  0  0  0  0
M  END
>  <CHROM.1>
-109.87408123,170.80379358,-149.88169938,156.00788340,-38.39897026,-93.02744221
-165.23477506,62.34543457,-178.95937234,37.58814010,42.51441085,-5.08931000
-2.70981373,1.08319289,-0.18091753

>  <Name>
3c44_lig

>  <RI>
0

>  <Rbt.Current_Directory>
/home/itssahil/PROJECTS/Mol_Feturizer/New_Systems/rnas/3c44

>  <Rbt.Executable>
rbdock ($Id: //depot/dev/client3/rdock/2013.1/src/exe/rbdock.cxx#4 $)

>  <Rbt.Library>
libRbt.so (2013.1, Build901 2013/11/27)

>  <Rbt.Parameter_File>
/export/apps/rDock/src/rDock_2013.1_src/data/scripts/dock_solv.prm

>  <Rbt.Receptor>
prm/blind_docking_80.prm

>  <SCORE>
10.6759

>  <SCORE.INTER>
-7.76525

>  <SCORE.INTER.CONST>
1

>  <SCORE.INTER.POLAR>
-0.85106

>  <SCORE.INTER.ROT>
9

>  <SCORE.INTER.SOLV>
21.735

>  <SCORE.INTER.VDW>
-19.185

>  <SCORE.INTER.norm>
-0.184887

>  <SCORE.INTRA>
16.4917

>  <SCORE.INTRA.DIHEDRAL>
4.51028

>  <SCORE.INTRA.DIHEDRAL.0>
14.8538

>  <SCORE.INTRA.POLAR>
0

>  <SCORE.INTRA.POLAR.0>
0

>  <SCORE.INTRA.REPUL>
0.271394

>  <SCORE.INTRA.REPUL.0>
0

>  <SCORE.INTRA.SOLV>
3.89618

>  <SCORE.INTRA.SOLV.lig_0>
-100.951

>  <SCORE.INTRA.VDW>
10.9315

>  <SCORE.INTRA.VDW.0>
-5.71388

>  <SCORE.INTRA.norm>
0.392659

>  <SCORE.RESTR>
1.94943

>  <SCORE.RESTR.CAVITY>
1.94943

>  <SCORE.RESTR.norm>
0.046415

>  <SCORE.SYSTEM>
0

>  <SCORE.SYSTEM.CONST>
0

>  <SCORE.SYSTEM.DIHEDRAL>
0

>  <SCORE.SYSTEM.SOLV>
0

>  <SCORE.SYSTEM.norm>
0

>  <SCORE.heavy>
42

>  <SCORE.norm>
0.254188

>  <RMSD>
10.757

$$$$
3c44_lig
 OpenBabel11021811463D
libRbt.so/2013.1/901 2013/11/27
 42 45  0  0  0  0  0  0  0  0999 V2000
   37.9708   40.4105   -2.3008 C   0  0  2  0  0  0  0  0  0  0  0  0
   37.1493   41.4701   -2.8149 O   0  0  0  0  0  0  0  0  0  0  0  0
   33.7007   42.8403   -0.9659 C   0  0  2  0  0  0  0  0  0  0  0  0
   32.6058   43.3849   -0.1483 N   0  0  0  0  0  0  0  0  0  0  0  0
   37.1139   44.4141   -4.0674 C   0  0  1  0  0  0  0  0  0  0  0  0
   38.2775   44.5274   -7.7441 C   0  0  1  0  0  0  0  0  0  0  0  0
   39.3034   40.3980   -3.0571 C   0  0  2  0  0  0  0  0  0  0  0  0
   39.9514   41.7162   -2.9985 N   0  0  0  0  0  0  0  0  0  0  0  0
   34.4833   41.7817   -0.1836 C   0  0  0  0  0  0  0  0  0  0  0  0
   38.2562   43.4105   -4.2314 C   0  0  2  0  0  0  0  0  0  0  0  0
   39.4938   44.0123   -3.8469 O   0  0  0  0  0  0  0  0  0  0  0  0
   38.4491   43.1862   -8.4648 C   0  0  2  0  0  0  0  0  0  0  0  0
   39.8581   42.7826   -8.3594 N   0  0  0  0  0  0  0  0  0  0  0  0
   39.1081   40.0019   -4.5227 C   0  0  1  0  0  0  0  0  0  0  0  0
   40.3879   39.8498   -5.1443 O   0  0  0  0  0  0  0  0  0  0  0  0
   35.5001   41.1511   -1.1410 C   0  0  2  0  0  0  0  0  0  0  0  0
   36.3145   40.1698   -0.4083 N   0  0  0  0  0  0  0  0  0  0  0  0
   38.2390   43.2474   -5.7499 C   0  0  2  0  0  0  0  0  0  0  0  0
   38.7670   44.4173   -6.3960 O   0  0  0  0  0  0  0  0  0  0  0  0
   38.0767   43.3033   -9.9486 C   0  0  1  0  0  0  0  0  0  0  0  0
   36.6640   43.4671  -10.0973 O   0  0  0  0  0  0  0  0  0  0  0  0
   38.3395   38.6817   -4.6056 C   0  0  2  0  0  0  0  0  0  0  0  0
   38.0634   38.3717   -5.9741 O   0  0  0  0  0  0  0  0  0  0  0  0
   36.4321   42.1814   -1.7909 C   0  0  2  0  0  0  0  0  0  0  0  0
   36.7420   43.1591   -6.0021 C   0  0  2  0  0  0  0  0  0  0  0  0
   36.0974   43.9274   -4.9631 O   0  0  0  0  0  0  0  0  0  0  0  0
   38.7809   44.4949  -10.5997 C   0  0  2  0  0  0  0  0  0  0  0  0
   40.1857   44.2300  -10.6509 O   0  0  0  0  0  0  0  0  0  0  0  0
   37.0269   38.8040   -3.8303 C   0  0  2  0  0  0  0  0  0  0  0  0
   37.2913   39.1507   -2.4565 O   0  0  0  0  0  0  0  0  0  0  0  0
   35.7133   43.3916   -2.3836 C   0  0  2  0  0  0  0  0  0  0  0  0
   36.6767   44.4106   -2.6972 O   0  0  0  0  0  0  0  0  0  0  0  0
   36.3027   41.6941   -5.9556 C   0  0  0  0  0  0  0  0  0  0  0  0
   36.9963   40.9657   -6.9711 O   0  0  0  0  0  0  0  0  0  0  0  0
   38.5036   45.7512   -9.7698 C   0  0  1  0  0  0  0  0  0  0  0  0
   39.0170   45.5417   -8.4424 O   0  0  0  0  0  0  0  0  0  0  0  0
   36.3180   37.4491   -3.9009 C   0  0  0  0  0  0  0  0  0  0  0  0
   34.9399   37.5742   -3.4047 O   0  0  0  0  0  0  0  0  0  0  0  0
   34.6686   43.9419   -1.4055 C   0  0  1  0  0  0  0  0  0  0  0  0
   33.9474   45.0158   -2.0134 O   0  0  0  0  0  0  0  0  0  0  0  0
   39.1584   46.9967  -10.3685 C   0  0  0  0  0  0  0  0  0  0  0  0
   40.6124   46.7943  -10.4349 N   0  0  0  0  0  0  0  0  0  0  0  0
  1  2  1  6  0  0  0
  1  7  1  0  0  0  0
  1 30  1  0  0  0  0
  3  4  1  1  0  0  0
  3  9  1  0  0  0  0
  3 39  1  0  0  0  0
  5 10  1  0  0  0  0
  5 26  1  0  0  0  0
  5 32  1  1  0  0  0
  6 12  1  0  0  0  0
  6 36  1  0  0  0  0
  6 19  1  1  0  0  0
  7  8  1  6  0  0  0
  7 14  1  0  0  0  0
  9 16  1  0  0  0  0
 10 11  1  6  0  0  0
 10 18  1  0  0  0  0
 12 13  1  6  0  0  0
 12 20  1  0  0  0  0
 14 15  1  1  0  0  0
 14 22  1  0  0  0  0
 16 17  1  1  0  0  0
 16 24  1  0  0  0  0
 18 19  1  6  0  0  0
 18 25  1  0  0  0  0
 20 21  1  1  0  0  0
 20 27  1  0  0  0  0
 22 23  1  6  0  0  0
 22 29  1  0  0  0  0
 24  2  1  6  0  0  0
 24 31  1  0  0  0  0
 25 26  1  0  0  0  0
 25 33  1  1  0  0  0
 27 28  1  1  0  0  0
 27 35  1  0  0  0  0
 29 30  1  0  0  0  0
 29 37  1  1  0  0  0
 31 32  1  1  0  0  0
 31 39  1  0  0  0  0
 33 34  1  0  0  0  0
 35 36  1  0  0  0  0
 35 41  1  6  0  0  0
 37 38  1  0  0  0  0
 39 40  1  6  0  0  0
 41 42  1  0  0  0  0
M  END
>  <CHROM.1>
-139.47324795,-84.88715639,-48.70110718,-156.46665962,-62.54561822,-60.46232030
-168.94678136,96.12379193,-59.67056019,37.42351118,42.43230287,-5.05201228
-2.29806665,0.99611593,-0.47894016

>  <Name>
3c44_lig

>  <RI>
0

>  <Rbt.Current_Directory>
/home/itssahil/PROJECTS/Mol_Feturizer/New_Systems/rnas/3c44

>  <Rbt.Executable>
rbdock ($Id: //depot/dev/client3/rdock/2013.1/src/exe/rbdock.cxx#4 $)

>  <Rbt.Library>
libRbt.so (2013.1, Build901 2013/11/27)

>  <Rbt.Parameter_File>
/export/apps/rDock/src/rDock_2013.1_src/data/scripts/dock_solv.prm

>  <Rbt.Receptor>
prm/blind_docking_100.prm

>  <SCORE>
1.03029

>  <SCORE.INTER>
-13.7678

>  <SCORE.INTER.CONST>
1

>  <SCORE.INTER.POLAR>
-1.2076

>  <SCORE.INTER.ROT>
9

>  <SCORE.INTER.SOLV>
17.8739

>  <SCORE.INTER.VDW>
-20.7112

>  <SCORE.INTER.norm>
-0.327806

>  <SCORE.INTRA>
11.6227

>  <SCORE.INTRA.DIHEDRAL>
1.68979

>  <SCORE.INTRA.DIHEDRAL.0>
14.8538

>  <SCORE.INTRA.POLAR>
0

>  <SCORE.INTRA.POLAR.0>
0

>  <SCORE.INTRA.REPUL>
0

>  <SCORE.INTRA.REPUL.0>
0

>  <SCORE.INTRA.SOLV>
5.99003

>  <SCORE.INTRA.SOLV.lig_0>
-100.951

>  <SCORE.INTRA.VDW>
7.78281

>  <SCORE.INTRA.VDW.0>
-5.71388

>  <SCORE.INTRA.norm>
0.276731

>  <SCORE.RESTR>
3.17542

>  <SCORE.RESTR.CAVITY>
3.17542

>  <SCORE.RESTR.norm>
0.0756052

>  <SCORE.SYSTEM>
0

>  <SCORE.SYSTEM.CONST>
0

>  <SCORE.SYSTEM.DIHEDRAL>
0

>  <SCORE.SYSTEM.SOLV>
0

>  <SCORE.SYSTEM.norm>
0

>  <SCORE.heavy>
42

>  <SCORE.norm>
0.0245308

>  <RMSD>
10.759

$$$$
3c44_lig
 OpenBabel11021811463D
libRbt.so/2013.1/901 2013/11/27
 42 45  0  0  0  0  0  0  0  0999 V2000
   36.6592   39.3418   -3.2573 C   0  0  2  0  0  0  0  0  0  0  0  0
   37.5649   40.2188   -2.5700 O   0  0  0  0  0  0  0  0  0  0  0  0
   34.2472   41.9170   -0.7539 C   0  0  2  0  0  0  0  0  0  0  0  0
   33.2070   42.5876    0.0412 N   0  0  0  0  0  0  0  0  0  0  0  0
   37.8672   42.8164   -3.9624 C   0  0  1  0  0  0  0  0  0  0  0  0
   38.1819   43.4377   -7.8871 C   0  0  1  0  0  0  0  0  0  0  0  0
   37.4411   38.1429   -3.8044 C   0  0  2  0  0  0  0  0  0  0  0  0
   38.1949   37.4760   -2.7329 N   0  0  0  0  0  0  0  0  0  0  0  0
   35.0138   40.9057    0.1035 C   0  0  0  0  0  0  0  0  0  0  0  0
   38.1456   44.0853   -4.7696 C   0  0  2  0  0  0  0  0  0  0  0  0
   36.9797   44.4618   -5.5049 O   0  0  0  0  0  0  0  0  0  0  0  0
   39.2547   43.3098   -8.9736 C   0  0  2  0  0  0  0  0  0  0  0  0
   40.5443   43.7172   -8.3990 N   0  0  0  0  0  0  0  0  0  0  0  0
   38.4123   38.5685   -4.9084 C   0  0  1  0  0  0  0  0  0  0  0  0
   38.9998   37.4028   -5.4943 O   0  0  0  0  0  0  0  0  0  0  0  0
   35.9672   40.1394   -0.8194 C   0  0  2  0  0  0  0  0  0  0  0  0
   36.7668   39.1989   -0.0201 N   0  0  0  0  0  0  0  0  0  0  0  0
   39.1897   43.5455   -5.7449 C   0  0  2  0  0  0  0  0  0  0  0  0
   38.5799   42.6895   -6.7249 O   0  0  0  0  0  0  0  0  0  0  0  0
   38.9388   44.2133  -10.1728 C   0  0  1  0  0  0  0  0  0  0  0  0
   37.8142   43.7070  -10.8967 O   0  0  0  0  0  0  0  0  0  0  0  0
   37.6628   39.3583   -5.9830 C   0  0  2  0  0  0  0  0  0  0  0  0
   38.5909   39.8475   -6.9547 O   0  0  0  0  0  0  0  0  0  0  0  0
   36.9164   41.0583   -1.5987 C   0  0  2  0  0  0  0  0  0  0  0  0
   40.0442   42.7122   -4.8029 C   0  0  2  0  0  0  0  0  0  0  0  0
   39.1743   42.2533   -3.7455 O   0  0  0  0  0  0  0  0  0  0  0  0
   38.6289   45.6407   -9.7190 C   0  0  2  0  0  0  0  0  0  0  0  0
   39.8224   46.2277   -9.1925 O   0  0  0  0  0  0  0  0  0  0  0  0
   36.9278   40.5330   -5.3357 C   0  0  2  0  0  0  0  0  0  0  0  0
   36.0139   40.0541   -4.3294 O   0  0  0  0  0  0  0  0  0  0  0  0
   36.2270   42.2359   -2.2846 C   0  0  2  0  0  0  0  0  0  0  0  0
   37.2195   43.1749   -2.7293 O   0  0  0  0  0  0  0  0  0  0  0  0
   41.1788   43.5748   -4.2460 C   0  0  0  0  0  0  0  0  0  0  0  0
   40.6216   44.7316   -3.6183 O   0  0  0  0  0  0  0  0  0  0  0  0
   37.5370   45.5962   -8.6468 C   0  0  1  0  0  0  0  0  0  0  0  0
   38.0218   44.8214   -7.5360 O   0  0  0  0  0  0  0  0  0  0  0  0
   36.1563   41.2624   -6.4386 C   0  0  0  0  0  0  0  0  0  0  0  0
   35.3518   42.3475   -5.8585 O   0  0  0  0  0  0  0  0  0  0  0  0
   35.2430   42.9256   -1.3322 C   0  0  1  0  0  0  0  0  0  0  0  0
   34.5450   43.9663   -2.0197 O   0  0  0  0  0  0  0  0  0  0  0  0
   37.1529   46.9918   -8.1534 C   0  0  0  0  0  0  0  0  0  0  0  0
   38.2269   47.5148   -7.2975 N   0  0  0  0  0  0  0  0  0  0  0  0
  1  2  1  6  0  0  0
  1  7  1  0  0  0  0
  1 30  1  0  0  0  0
  3  4  1  1  0  0  0
  3  9  1  0  0  0  0
  3 39  1  0  0  0  0
  5 10  1  0  0  0  0
  5 26  1  0  0  0  0
  5 32  1  1  0  0  0
  6 12  1  0  0  0  0
  6 36  1  0  0  0  0
  6 19  1  1  0  0  0
  7  8  1  1  0  0  0
  7 14  1  0  0  0  0
  9 16  1  0  0  0  0
 10 11  1  6  0  0  0
 10 18  1  0  0  0  0
 12 13  1  1  0  0  0
 12 20  1  0  0  0  0
 14 15  1  6  0  0  0
 14 22  1  0  0  0  0
 16 17  1  1  0  0  0
 16 24  1  0  0  0  0
 18 19  1  6  0  0  0
 18 25  1  0  0  0  0
 20 21  1  1  0  0  0
 20 27  1  0  0  0  0
 22 23  1  6  0  0  0
 22 29  1  0  0  0  0
 24  2  1  6  0  0  0
 24 31  1  0  0  0  0
 25 26  1  0  0  0  0
 25 33  1  1  0  0  0
 27 28  1  1  0  0  0
 27 35  1  0  0  0  0
 29 30  1  0  0  0  0
 29 37  1  6  0  0  0
 31 32  1  1  0  0  0
 31 39  1  0  0  0  0
 33 34  1  0  0  0  0
 35 36  1  0  0  0  0
 35 41  1  1  0  0  0
 37 38  1  0  0  0  0
 39 40  1  6  0  0  0
 41 42  1  0  0  0  0
M  END
>  <CHROM.1>
-156.92103375,143.97966591,97.56698014,91.00725440,45.38067175,55.89890616
175.98988727,80.12199610,-73.49248402,37.61192999,42.36877994,-5.00259552
-2.23055881,1.05675502,-0.39494190

>  <Name>
3c44_lig

>  <RI>
0

>  <Rbt.Current_Directory>
/home/itssahil/PROJECTS/Mol_Feturizer/New_Systems/rnas/3c44

>  <Rbt.Executable>
rbdock ($Id: //depot/dev/client3/rdock/2013.1/src/exe/rbdock.cxx#4 $)

>  <Rbt.Library>
libRbt.so (2013.1, Build901 2013/11/27)

>  <Rbt.Parameter_File>
/export/apps/rDock/src/rDock_2013.1_src/data/scripts/dock_solv.prm

>  <Rbt.Receptor>
prm/blind_docking_100.prm

>  <SCORE>
4.58568

>  <SCORE.INTER>
-9.20608

>  <SCORE.INTER.CONST>
1

>  <SCORE.INTER.POLAR>
-0.558178

>  <SCORE.INTER.ROT>
9

>  <SCORE.INTER.SOLV>
20.0732

>  <SCORE.INTER.VDW>
-20.5679

>  <SCORE.INTER.norm>
-0.219192

>  <SCORE.INTRA>
10.4605

>  <SCORE.INTRA.DIHEDRAL>
4.55785

>  <SCORE.INTRA.DIHEDRAL.0>
14.8538

>  <SCORE.INTRA.POLAR>
0

>  <SCORE.INTRA.POLAR.0>
0

>  <SCORE.INTRA.REPUL>
0.0759067

>  <SCORE.INTRA.REPUL.0>
0

>  <SCORE.INTRA.SOLV>
4.45568

>  <SCORE.INTRA.SOLV.lig_0>
-100.951

>  <SCORE.INTRA.VDW>
5.57419

>  <SCORE.INTRA.VDW.0>
-5.71388

>  <SCORE.INTRA.norm>
0.249059

>  <SCORE.RESTR>
3.33127

>  <SCORE.RESTR.CAVITY>
3.33127

>  <SCORE.RESTR.norm>
0.079316

>  <SCORE.SYSTEM>
0

>  <SCORE.SYSTEM.CONST>
0

>  <SCORE.SYSTEM.DIHEDRAL>
0

>  <SCORE.SYSTEM.SOLV>
0

>  <SCORE.SYSTEM.norm>
0

>  <SCORE.heavy>
42

>  <SCORE.norm>
0.109183

>  <RMSD>
10.787

$$$$
3c44_lig
 OpenBabel11021811463D
libRbt.so/2013.1/901 2013/11/27
 42 45  0  0  0  0  0  0  0  0999 V2000
   36.3751   39.3731   -2.7738 C   0  0  2  0  0  0  0  0  0  0  0  0
   37.2779   39.9970   -1.8479 O   0  0  0  0  0  0  0  0  0  0  0  0
   34.7707   43.2989   -1.8760 C   0  0  2  0  0  0  0  0  0  0  0  0
   33.9627   44.5143   -1.6923 N   0  0  0  0  0  0  0  0  0  0  0  0
   39.1056   42.7285   -3.5874 C   0  0  1  0  0  0  0  0  0  0  0  0
   40.1624   42.7681   -6.9422 C   0  0  1  0  0  0  0  0  0  0  0  0
   36.3005   37.8736   -2.4674 C   0  0  2  0  0  0  0  0  0  0  0  0
   35.9409   37.6435   -1.0607 N   0  0  0  0  0  0  0  0  0  0  0  0
   34.5557   42.3269   -0.7124 C   0  0  0  0  0  0  0  0  0  0  0  0
   40.5428   43.2288   -3.4357 C   0  0  2  0  0  0  0  0  0  0  0  0
   40.5609   44.6569   -3.3942 O   0  0  0  0  0  0  0  0  0  0  0  0
   40.8700   43.1905   -8.2340 C   0  0  2  0  0  0  0  0  0  0  0  0
   40.6665   44.6337   -8.4208 N   0  0  0  0  0  0  0  0  0  0  0  0
   37.6316   37.1781   -2.7631 C   0  0  1  0  0  0  0  0  0  0  0  0
   37.4677   35.7644   -2.6149 O   0  0  0  0  0  0  0  0  0  0  0  0
   35.2997   41.0292   -1.0449 C   0  0  2  0  0  0  0  0  0  0  0  0
   35.1671   40.0907    0.0796 N   0  0  0  0  0  0  0  0  0  0  0  0
   41.1179   42.7678   -4.7734 C   0  0  2  0  0  0  0  0  0  0  0  0
   40.6247   43.5820   -5.8500 O   0  0  0  0  0  0  0  0  0  0  0  0
   40.2965   42.4478   -9.4478 C   0  0  1  0  0  0  0  0  0  0  0  0
   40.6769   41.0697   -9.4152 O   0  0  0  0  0  0  0  0  0  0  0  0
   38.0762   37.4941   -4.1923 C   0  0  2  0  0  0  0  0  0  0  0  0
   39.3709   36.9343   -4.4276 O   0  0  0  0  0  0  0  0  0  0  0  0
   36.7900   41.2486   -1.3337 C   0  0  2  0  0  0  0  0  0  0  0  0
   40.5133   41.3760   -4.8702 C   0  0  2  0  0  0  0  0  0  0  0  0
   39.2570   41.4160   -4.1593 O   0  0  0  0  0  0  0  0  0  0  0  0
   38.7697   42.5357   -9.4750 C   0  0  2  0  0  0  0  0  0  0  0  0
   38.3893   43.8907   -9.7306 O   0  0  0  0  0  0  0  0  0  0  0  0
   38.1270   39.0100   -4.3893 C   0  0  2  0  0  0  0  0  0  0  0  0
   36.8351   39.5898   -4.1208 O   0  0  0  0  0  0  0  0  0  0  0  0
   37.0783   42.3802   -2.3180 C   0  0  2  0  0  0  0  0  0  0  0  0
   38.4818   42.6872   -2.2921 O   0  0  0  0  0  0  0  0  0  0  0  0
   41.4690   40.3601   -4.2408 C   0  0  0  0  0  0  0  0  0  0  0  0
   41.1881   39.0630   -4.7716 O   0  0  0  0  0  0  0  0  0  0  0  0
   38.2202   42.0718   -8.1234 C   0  0  1  0  0  0  0  0  0  0  0  0
   38.7443   42.9352   -7.0991 O   0  0  0  0  0  0  0  0  0  0  0  0
   38.5284   39.2762   -5.8424 C   0  0  0  0  0  0  0  0  0  0  0  0
   37.7930   38.3756   -6.7419 O   0  0  0  0  0  0  0  0  0  0  0  0
   36.2622   43.6307   -1.9699 C   0  0  1  0  0  0  0  0  0  0  0  0
   36.4789   44.6453   -2.9531 O   0  0  0  0  0  0  0  0  0  0  0  0
   36.6922   42.1098   -8.0759 C   0  0  0  0  0  0  0  0  0  0  0  0
   36.1905   40.8115   -7.6043 N   0  0  0  0  0  0  0  0  0  0  0  0
  1  2  1  1  0  0  0
  1  7  1  0  0  0  0
  1 30  1  0  0  0  0
  3  4  1  1  0  0  0
  3  9  1  0  0  0  0
  3 39  1  0  0  0  0
  5 10  1  0  0  0  0
  5 26  1  0  0  0  0
  5 32  1  1  0  0  0
  6 12  1  0  0  0  0
  6 36  1  0  0  0  0
  6 19  1  1  0  0  0
  7  8  1  1  0  0  0
  7 14  1  0  0  0  0
  9 16  1  0  0  0  0
 10 11  1  6  0  0  0
 10 18  1  0  0  0  0
 12 13  1  6  0  0  0
 12 20  1  0  0  0  0
 14 15  1  6  0  0  0
 14 22  1  0  0  0  0
 16 17  1  1  0  0  0
 16 24  1  0  0  0  0
 18 19  1  6  0  0  0
 18 25  1  0  0  0  0
 20 21  1  1  0  0  0
 20 27  1  0  0  0  0
 22 23  1  1  0  0  0
 22 29  1  0  0  0  0
 24  2  1  6  0  0  0
 24 31  1  0  0  0  0
 25 26  1  0  0  0  0
 25 33  1  1  0  0  0
 27 28  1  1  0  0  0
 27 35  1  0  0  0  0
 29 30  1  0  0  0  0
 29 37  1  6  0  0  0
 31 32  1  1  0  0  0
 31 39  1  0  0  0  0
 33 34  1  0  0  0  0
 35 36  1  0  0  0  0
 35 41  1  6  0  0  0
 37 38  1  0  0  0  0
 39 40  1  6  0  0  0
 41 42  1  0  0  0  0
M  END
>  <CHROM.1>
-136.94206355,173.15193826,-125.35909431,-132.30659316,41.74397779,-157.54242552
43.51533265,129.51430951,128.90417148,38.18543521,41.22561748,-4.57090676
-2.67273289,1.01540784,-0.12982388

>  <Name>
3c44_lig

>  <RI>
0

>  <Rbt.Current_Directory>
/home/itssahil/PROJECTS/Mol_Feturizer/New_Systems/rnas/3c44

>  <Rbt.Executable>
rbdock ($Id: //depot/dev/client3/rdock/2013.1/src/exe/rbdock.cxx#4 $)

>  <Rbt.Library>
libRbt.so (2013.1, Build901 2013/11/27)

>  <Rbt.Parameter_File>
/export/apps/rDock/src/rDock_2013.1_src/data/scripts/dock_solv.prm

>  <Rbt.Receptor>
prm/blind_docking_80.prm

>  <SCORE>
20.9242

>  <SCORE.INTER>
-7.35559

>  <SCORE.INTER.CONST>
1

>  <SCORE.INTER.POLAR>
-1.11585

>  <SCORE.INTER.ROT>
9

>  <SCORE.INTER.SOLV>
22.6633

>  <SCORE.INTER.VDW>
-18.3387

>  <SCORE.INTER.norm>
-0.175133

>  <SCORE.INTRA>
19.857

>  <SCORE.INTRA.DIHEDRAL>
20.4654

>  <SCORE.INTRA.DIHEDRAL.0>
14.8538

>  <SCORE.INTRA.POLAR>
0

>  <SCORE.INTRA.POLAR.0>
0

>  <SCORE.INTRA.REPUL>
0.0508093

>  <SCORE.INTRA.REPUL.0>
0

>  <SCORE.INTRA.SOLV>
2.1425

>  <SCORE.INTRA.SOLV.lig_0>
-100.951

>  <SCORE.INTRA.VDW>
8.29903

>  <SCORE.INTRA.VDW.0>
-5.71388

>  <SCORE.INTRA.norm>
0.472786

>  <SCORE.RESTR>
8.42279

>  <SCORE.RESTR.CAVITY>
8.42279

>  <SCORE.RESTR.norm>
0.200543

>  <SCORE.SYSTEM>
0

>  <SCORE.SYSTEM.CONST>
0

>  <SCORE.SYSTEM.DIHEDRAL>
0

>  <SCORE.SYSTEM.SOLV>
0

>  <SCORE.SYSTEM.norm>
0

>  <SCORE.heavy>
42

>  <SCORE.norm>
0.498196

>  <RMSD>
10.864

$$$$
3c44_lig
 OpenBabel11021811463D
libRbt.so/2013.1/901 2013/11/27
 42 45  0  0  0  0  0  0  0  0999 V2000
   37.4705   40.5818   -2.2072 C   0  0  2  0  0  0  0  0  0  0  0  0
   36.6029   41.5637   -2.7945 O   0  0  0  0  0  0  0  0  0  0  0  0
   33.3175   43.3429   -0.9972 C   0  0  2  0  0  0  0  0  0  0  0  0
   32.2893   44.0376   -0.2074 N   0  0  0  0  0  0  0  0  0  0  0  0
   36.5854   44.5211   -4.3578 C   0  0  1  0  0  0  0  0  0  0  0  0
   37.4203   45.0750   -8.3866 C   0  0  1  0  0  0  0  0  0  0  0  0
   38.8483   40.6692   -2.8720 C   0  0  2  0  0  0  0  0  0  0  0  0
   39.3818   42.0368   -2.7941 N   0  0  0  0  0  0  0  0  0  0  0  0
   34.0486   42.3065   -0.1389 C   0  0  0  0  0  0  0  0  0  0  0  0
   37.5140   45.6836   -4.7120 C   0  0  2  0  0  0  0  0  0  0  0  0
   36.7561   46.8857   -4.8615 O   0  0  0  0  0  0  0  0  0  0  0  0
   37.4654   43.5578   -8.5962 C   0  0  2  0  0  0  0  0  0  0  0  0
   38.2631   42.9659   -7.5134 N   0  0  0  0  0  0  0  0  0  0  0  0
   38.7865   40.2397   -4.3399 C   0  0  1  0  0  0  0  0  0  0  0  0
   40.1138   40.1855   -4.8713 O   0  0  0  0  0  0  0  0  0  0  0  0
   34.9886   41.5192   -1.0579 C   0  0  2  0  0  0  0  0  0  0  0  0
   35.7552   40.5529   -0.2569 N   0  0  0  0  0  0  0  0  0  0  0  0
   37.9862   45.2247   -6.0901 C   0  0  2  0  0  0  0  0  0  0  0  0
   36.9379   45.3655   -7.0630 O   0  0  0  0  0  0  0  0  0  0  0  0
   38.1142   43.2035   -9.9406 C   0  0  1  0  0  0  0  0  0  0  0  0
   37.2495   43.5613  -11.0219 O   0  0  0  0  0  0  0  0  0  0  0  0
   38.1349   38.8600   -4.4501 C   0  0  2  0  0  0  0  0  0  0  0  0
   37.9791   38.5110   -5.8281 O   0  0  0  0  0  0  0  0  0  0  0  0
   35.9693   42.4156   -1.8241 C   0  0  2  0  0  0  0  0  0  0  0  0
   38.2349   43.7490   -5.8206 C   0  0  2  0  0  0  0  0  0  0  0  0
   37.3196   43.3552   -4.7753 O   0  0  0  0  0  0  0  0  0  0  0  0
   39.4478   43.9318  -10.1162 C   0  0  2  0  0  0  0  0  0  0  0  0
   40.3865   43.4116   -9.1704 O   0  0  0  0  0  0  0  0  0  0  0  0
   36.7667   38.8839   -3.7670 C   0  0  2  0  0  0  0  0  0  0  0  0
   36.9076   39.2685   -2.3851 O   0  0  0  0  0  0  0  0  0  0  0  0
   35.3183   43.6153   -2.5094 C   0  0  2  0  0  0  0  0  0  0  0  0
   36.3400   44.5290   -2.9406 O   0  0  0  0  0  0  0  0  0  0  0  0
   39.6876   43.5483   -5.3837 C   0  0  0  0  0  0  0  0  0  0  0  0
   40.2685   42.4985   -6.1606 O   0  0  0  0  0  0  0  0  0  0  0  0
   39.2311   45.4298   -9.8858 C   0  0  1  0  0  0  0  0  0  0  0  0
   38.7407   45.6175   -8.5465 O   0  0  0  0  0  0  0  0  0  0  0  0
   36.1766   37.4745   -3.8603 C   0  0  0  0  0  0  0  0  0  0  0  0
   34.7538   37.4979   -3.4913 O   0  0  0  0  0  0  0  0  0  0  0  0
   34.3455   44.3267   -1.5616 C   0  0  1  0  0  0  0  0  0  0  0  0
   33.6822   45.3898   -2.2494 O   0  0  0  0  0  0  0  0  0  0  0  0
   40.5186   46.2352  -10.0645 C   0  0  0  0  0  0  0  0  0  0  0  0
   41.4709   45.8659   -9.0080 N   0  0  0  0  0  0  0  0  0  0  0  0
  1  2  1  6  0  0  0
  1  7  1  0  0  0  0
  1 30  1  0  0  0  0
  3  4  1  1  0  0  0
  3  9  1  0  0  0  0
  3 39  1  0  0  0  0
  5 10  1  0  0  0  0
  5 26  1  0  0  0  0
  5 32  1  1  0  0  0
  6 12  1  0  0  0  0
  6 36  1  0  0  0  0
  6 19  1  1  0  0  0
  7  8  1  6  0  0  0
  7 14  1  0  0  0  0
  9 16  1  0  0  0  0
 10 11  1  6  0  0  0
 10 18  1  0  0  0  0
 12 13  1  1  0  0  0
 12 20  1  0  0  0  0
 14 15  1  1  0  0  0
 14 22  1  0  0  0  0
 16 17  1  1  0  0  0
 16 24  1  0  0  0  0
 18 19  1  6  0  0  0
 18 25  1  0  0  0  0
 20 21  1  6  0  0  0
 20 27  1  0  0  0  0
 22 23  1  6  0  0  0
 22 29  1  0  0  0  0
 24  2  1  6  0  0  0
 24 31  1  0  0  0  0
 25 26  1  0  0  0  0
 25 33  1  1  0  0  0
 27 28  1  1  0  0  0
 27 35  1  0  0  0  0
 29 30  1  0  0  0  0
 29 37  1  1  0  0  0
 31 32  1  1  0  0  0
 31 39  1  0  0  0  0
 33 34  1  0  0  0  0
 35 36  1  0  0  0  0
 35 41  1  1  0  0  0
 37 38  1  0  0  0  0
 39 40  1  6  0  0  0
 41 42  1  0  0  0  0
M  END
>  <CHROM.1>
-127.27800085,170.75474803,80.42194241,173.65284183,-68.39800359,-130.09904872
-167.58338938,105.40247226,-66.10078624,37.33359501,42.78958221,-4.99674548
-2.39448158,0.93423796,-0.42835949

>  <Name>
3c44_lig

>  <RI>
0

>  <Rbt.Current_Directory>
/home/itssahil/PROJECTS/Mol_Feturizer/New_Systems/rnas/3c44

>  <Rbt.Executable>
rbdock ($Id: //depot/dev/client3/rdock/2013.1/src/exe/rbdock.cxx#4 $)

>  <Rbt.Library>
libRbt.so (2013.1, Build901 2013/11/27)

>  <Rbt.Parameter_File>
/export/apps/rDock/src/rDock_2013.1_src/data/scripts/dock_solv.prm

>  <Rbt.Receptor>
prm/blind_docking_100.prm

>  <SCORE>
24.6482

>  <SCORE.INTER>
-8.05672

>  <SCORE.INTER.CONST>
1

>  <SCORE.INTER.POLAR>
-0.87178

>  <SCORE.INTER.ROT>
9

>  <SCORE.INTER.SOLV>
22.3046

>  <SCORE.INTER.VDW>
-19.5001

>  <SCORE.INTER.norm>
-0.191827

>  <SCORE.INTRA>
29.6102

>  <SCORE.INTRA.DIHEDRAL>
7.11274

>  <SCORE.INTRA.DIHEDRAL.0>
14.8538

>  <SCORE.INTRA.POLAR>
0

>  <SCORE.INTRA.POLAR.0>
0

>  <SCORE.INTRA.REPUL>
0.537598

>  <SCORE.INTRA.REPUL.0>
0

>  <SCORE.INTRA.SOLV>
8.41793

>  <SCORE.INTRA.SOLV.lig_0>
-100.951

>  <SCORE.INTRA.VDW>
19.1568

>  <SCORE.INTRA.VDW.0>
-5.71388

>  <SCORE.INTRA.norm>
0.705004

>  <SCORE.RESTR>
3.09475

>  <SCORE.RESTR.CAVITY>
3.09475

>  <SCORE.RESTR.norm>
0.0736846

>  <SCORE.SYSTEM>
0

>  <SCORE.SYSTEM.CONST>
0

>  <SCORE.SYSTEM.DIHEDRAL>
0

>  <SCORE.SYSTEM.SOLV>
0

>  <SCORE.SYSTEM.norm>
0

>  <SCORE.heavy>
42

>  <SCORE.norm>
0.586862

>  <RMSD>
10.914

$$$$
3c44_lig
 OpenBabel11021811463D
libRbt.so/2013.1/901 2013/11/27
 42 45  0  0  0  0  0  0  0  0999 V2000
   38.1163   40.5904   -2.5698 C   0  0  2  0  0  0  0  0  0  0  0  0
   37.2337   41.6690   -2.9151 O   0  0  0  0  0  0  0  0  0  0  0  0
   33.7854   42.5541   -0.7902 C   0  0  2  0  0  0  0  0  0  0  0  0
   32.6934   42.9163    0.1264 N   0  0  0  0  0  0  0  0  0  0  0  0
   37.2378   44.5169   -3.6971 C   0  0  1  0  0  0  0  0  0  0  0  0
   38.4198   43.9141   -7.7258 C   0  0  1  0  0  0  0  0  0  0  0  0
   39.4033   40.7134   -3.3922 C   0  0  2  0  0  0  0  0  0  0  0  0
   40.0116   42.0403   -3.2181 N   0  0  0  0  0  0  0  0  0  0  0  0
   34.6731   41.4709   -0.1706 C   0  0  0  0  0  0  0  0  0  0  0  0
   36.2071   44.2976   -4.8056 C   0  0  2  0  0  0  0  0  0  0  0  0
   35.9317   42.9026   -4.9471 O   0  0  0  0  0  0  0  0  0  0  0  0
   39.7469   43.1827   -7.9531 C   0  0  2  0  0  0  0  0  0  0  0  0
   40.7342   43.7119   -7.0022 N   0  0  0  0  0  0  0  0  0  0  0  0
   39.1373   40.4771   -4.8810 C   0  0  1  0  0  0  0  0  0  0  0  0
   40.3837   40.4445   -5.5830 O   0  0  0  0  0  0  0  0  0  0  0  0
   35.6869   41.0342   -1.2335 C   0  0  2  0  0  0  0  0  0  0  0  0
   36.5987   40.0358   -0.6549 N   0  0  0  0  0  0  0  0  0  0  0  0
   37.0223   44.7631   -6.0103 C   0  0  2  0  0  0  0  0  0  0  0  0
   38.0368   43.8015   -6.3438 O   0  0  0  0  0  0  0  0  0  0  0  0
   40.2644   43.4052   -9.3802 C   0  0  1  0  0  0  0  0  0  0  0  0
   39.4487   42.7034  -10.3221 O   0  0  0  0  0  0  0  0  0  0  0  0
   38.4075   39.1464   -5.0731 C   0  0  2  0  0  0  0  0  0  0  0  0
   38.0636   38.9817   -6.4514 O   0  0  0  0  0  0  0  0  0  0  0  0
   36.5159   42.1997   -1.7873 C   0  0  2  0  0  0  0  0  0  0  0  0
   37.6740   46.0121   -5.4380 C   0  0  2  0  0  0  0  0  0  0  0  0
   37.8217   45.7930   -4.0183 O   0  0  0  0  0  0  0  0  0  0  0  0
   40.2625   44.8918   -9.7401 C   0  0  2  0  0  0  0  0  0  0  0  0
   41.2449   45.5611   -8.9446 O   0  0  0  0  0  0  0  0  0  0  0  0
   37.1380   39.1311   -4.2202 C   0  0  2  0  0  0  0  0  0  0  0  0
   37.4693   39.3312   -2.8319 O   0  0  0  0  0  0  0  0  0  0  0  0
   35.6899   43.4153   -2.2027 C   0  0  2  0  0  0  0  0  0  0  0  0
   36.5660   44.5323   -2.4254 O   0  0  0  0  0  0  0  0  0  0  0  0
   36.7841   47.2252   -5.7175 C   0  0  0  0  0  0  0  0  0  0  0  0
   36.6071   47.3597   -7.1294 O   0  0  0  0  0  0  0  0  0  0  0  0
   38.8705   45.4682   -9.4676 C   0  0  1  0  0  0  0  0  0  0  0  0
   38.5745   45.3002   -8.0700 O   0  0  0  0  0  0  0  0  0  0  0  0
   36.4695   37.7667   -4.4073 C   0  0  0  0  0  0  0  0  0  0  0  0
   35.9888   37.6257   -5.7894 O   0  0  0  0  0  0  0  0  0  0  0  0
   34.6547   43.7679   -1.1280 C   0  0  1  0  0  0  0  0  0  0  0  0
   33.8350   44.8502   -1.5751 O   0  0  0  0  0  0  0  0  0  0  0  0
   38.7788   46.9526   -9.8234 C   0  0  0  0  0  0  0  0  0  0  0  0
   39.0150   47.1203  -11.2641 N   0  0  0  0  0  0  0  0  0  0  0  0
  1  2  1  6  0  0  0
  1  7  1  0  0  0  0
  1 30  1  0  0  0  0
  3  4  1  1  0  0  0
  3  9  1  0  0  0  0
  3 39  1  0  0  0  0
  5 10  1  0  0  0  0
  5 26  1  0  0  0  0
  5 32  1  1  0  0  0
  6 12  1  0  0  0  0
  6 36  1  0  0  0  0
  6 19  1  1  0  0  0
  7  8  1  6  0  0  0
  7 14  1  0  0  0  0
  9 16  1  0  0  0  0
 10 11  1  6  0  0  0
 10 18  1  0  0  0  0
 12 13  1  1  0  0  0
 12 20  1  0  0  0  0
 14 15  1  6  0  0  0
 14 22  1  0  0  0  0
 16 17  1  1  0  0  0
 16 24  1  0  0  0  0
 18 19  1  1  0  0  0
 18 25  1  0  0  0  0
 20 21  1  6  0  0  0
 20 27  1  0  0  0  0
 22 23  1  6  0  0  0
 22 29  1  0  0  0  0
 24  2  1  6  0  0  0
 24 31  1  0  0  0  0
 25 26  1  0  0  0  0
 25 33  1  1  0  0  0
 27 28  1  1  0  0  0
 27 35  1  0  0  0  0
 29 30  1  0  0  0  0
 29 37  1  1  0  0  0
 31 32  1  1  0  0  0
 31 39  1  0  0  0  0
 33 34  1  0  0  0  0
 35 36  1  0  0  0  0
 35 41  1  1  0  0  0
 37 38  1  0  0  0  0
 39 40  1  6  0  0  0
 41 42  1  0  0  0  0
M  END
>  <CHROM.1>
-141.69224981,50.64386090,163.91270571,155.86995256,-60.65147819,-59.17462852
-66.56633529,79.43656458,62.59738835,37.55604391,42.94525784,-5.05314002
-2.34470224,0.95424222,-0.39629067

>  <Name>
3c44_lig

>  <RI>
0

>  <Rbt.Current_Directory>
/home/itssahil/PROJECTS/Mol_Feturizer/New_Systems/rnas/3c44

>  <Rbt.Executable>
rbdock ($Id: //depot/dev/client3/rdock/2013.1/src/exe/rbdock.cxx#4 $)

>  <Rbt.Library>
libRbt.so (2013.1, Build901 2013/11/27)

>  <Rbt.Parameter_File>
/export/apps/rDock/src/rDock_2013.1_src/data/scripts/dock_solv.prm

>  <Rbt.Receptor>
prm/blind_docking_100.prm

>  <SCORE>
8.04229

>  <SCORE.INTER>
-0.156251

>  <SCORE.INTER.CONST>
1

>  <SCORE.INTER.POLAR>
-0.872484

>  <SCORE.INTER.ROT>
9

>  <SCORE.INTER.SOLV>
21.7459

>  <SCORE.INTER.VDW>
-14.0445

>  <SCORE.INTER.norm>
-0.00372025

>  <SCORE.INTRA>
6.19519

>  <SCORE.INTRA.DIHEDRAL>
-3.44659

>  <SCORE.INTRA.DIHEDRAL.0>
14.8538

>  <SCORE.INTRA.POLAR>
0

>  <SCORE.INTRA.POLAR.0>
0

>  <SCORE.INTRA.REPUL>
0.259188

>  <SCORE.INTRA.REPUL.0>
0

>  <SCORE.INTRA.SOLV>
1.05573

>  <SCORE.INTRA.SOLV.lig_0>
-100.951

>  <SCORE.INTRA.VDW>
6.09468

>  <SCORE.INTRA.VDW.0>
-5.71388

>  <SCORE.INTRA.norm>
0.147505

>  <SCORE.RESTR>
2.00335

>  <SCORE.RESTR.CAVITY>
2.00335

>  <SCORE.RESTR.norm>
0.0476988

>  <SCORE.SYSTEM>
0

>  <SCORE.SYSTEM.CONST>
0

>  <SCORE.SYSTEM.DIHEDRAL>
0

>  <SCORE.SYSTEM.SOLV>
0

>  <SCORE.SYSTEM.norm>
0

>  <SCORE.heavy>
42

>  <SCORE.norm>
0.191483

>  <RMSD>
11.068

$$$$
3c44_lig
 OpenBabel11021811463D
libRbt.so/2013.1/901 2013/11/27
 42 45  0  0  0  0  0  0  0  0999 V2000
   36.3150   41.0681   -3.2931 C   0  0  2  0  0  0  0  0  0  0  0  0
   36.7622   42.3014   -2.7094 O   0  0  0  0  0  0  0  0  0  0  0  0
   32.9045   42.9420   -1.3318 C   0  0  2  0  0  0  0  0  0  0  0  0
   31.6283   43.2724   -0.6791 N   0  0  0  0  0  0  0  0  0  0  0  0
   36.2867   44.9628   -4.2360 C   0  0  1  0  0  0  0  0  0  0  0  0
   38.3339   45.5265   -7.8566 C   0  0  1  0  0  0  0  0  0  0  0  0
   37.4454   40.0368   -3.2121 C   0  0  2  0  0  0  0  0  0  0  0  0
   37.9194   39.8866   -1.8287 N   0  0  0  0  0  0  0  0  0  0  0  0
   33.8240   42.1866   -0.3679 C   0  0  0  0  0  0  0  0  0  0  0  0
   37.1499   46.2141   -4.4039 C   0  0  2  0  0  0  0  0  0  0  0  0
   36.3572   47.2899   -4.9098 O   0  0  0  0  0  0  0  0  0  0  0  0
   37.5724   45.4987   -9.1860 C   0  0  2  0  0  0  0  0  0  0  0  0
   36.5574   44.4386   -9.1144 N   0  0  0  0  0  0  0  0  0  0  0  0
   38.6246   40.4321   -4.1043 C   0  0  1  0  0  0  0  0  0  0  0  0
   39.5815   39.3684   -4.1194 O   0  0  0  0  0  0  0  0  0  0  0  0
   35.0606   41.7410   -1.1556 C   0  0  2  0  0  0  0  0  0  0  0  0
   35.9979   41.0636   -0.2471 N   0  0  0  0  0  0  0  0  0  0  0  0
   38.0885   45.7325   -5.5085 C   0  0  2  0  0  0  0  0  0  0  0  0
   37.4024   45.6650   -6.7693 O   0  0  0  0  0  0  0  0  0  0  0  0
   38.5164   45.2028  -10.3588 C   0  0  1  0  0  0  0  0  0  0  0  0
   39.3723   46.3216  -10.6052 O   0  0  0  0  0  0  0  0  0  0  0  0
   38.1323   40.6970   -5.5283 C   0  0  2  0  0  0  0  0  0  0  0  0
   39.2164   41.1717   -6.3310 O   0  0  0  0  0  0  0  0  0  0  0  0
   35.7883   42.9050   -1.8398 C   0  0  2  0  0  0  0  0  0  0  0  0
   38.3930   44.3253   -5.0193 C   0  0  2  0  0  0  0  0  0  0  0  0
   37.2367   43.8818   -4.2767 O   0  0  0  0  0  0  0  0  0  0  0  0
   39.3826   43.9754  -10.0710 C   0  0  2  0  0  0  0  0  0  0  0  0
   38.5460   42.8155  -10.0440 O   0  0  0  0  0  0  0  0  0  0  0  0
   37.0171   41.7432   -5.4981 C   0  0  2  0  0  0  0  0  0  0  0  0
   35.9330   41.2904   -4.6634 O   0  0  0  0  0  0  0  0  0  0  0  0
   34.8736   43.8399   -2.6283 C   0  0  2  0  0  0  0  0  0  0  0  0
   35.5970   45.0318   -2.9758 O   0  0  0  0  0  0  0  0  0  0  0  0
   39.6392   44.3526   -4.1316 C   0  0  0  0  0  0  0  0  0  0  0  0
   39.8683   43.0429   -3.6072 O   0  0  0  0  0  0  0  0  0  0  0  0
   40.0796   44.1635   -8.7209 C   0  0  1  0  0  0  0  0  0  0  0  0
   39.0714   44.3032   -7.7043 O   0  0  0  0  0  0  0  0  0  0  0  0
   36.5252   41.9390   -6.9345 C   0  0  0  0  0  0  0  0  0  0  0  0
   35.8144   40.7365   -7.3926 O   0  0  0  0  0  0  0  0  0  0  0  0
   33.6267   44.2030   -1.8132 C   0  0  1  0  0  0  0  0  0  0  0  0
   32.7436   45.0044   -2.6012 O   0  0  0  0  0  0  0  0  0  0  0  0
   40.9856   42.9833   -8.3678 C   0  0  0  0  0  0  0  0  0  0  0  0
   41.7064   43.2824   -7.1226 N   0  0  0  0  0  0  0  0  0  0  0  0
  1  2  1  6  0  0  0
  1  7  1  0  0  0  0
  1 30  1  0  0  0  0
  3  4  1  1  0  0  0
  3  9  1  0  0  0  0
  3 39  1  0  0  0  0
  5 10  1  0  0  0  0
  5 26  1  0  0  0  0
  5 32  1  1  0  0  0
  6 12  1  0  0  0  0
  6 36  1  0  0  0  0
  6 19  1  1  0  0  0
  7  8  1  1  0  0  0
  7 14  1  0  0  0  0
  9 16  1  0  0  0  0
 10 11  1  6  0  0  0
 10 18  1  0  0  0  0
 12 13  1  1  0  0  0
 12 20  1  0  0  0  0
 14 15  1  6  0  0  0
 14 22  1  0  0  0  0
 16 17  1  1  0  0  0
 16 24  1  0  0  0  0
 18 19  1  6  0  0  0
 18 25  1  0  0  0  0
 20 21  1  1  0  0  0
 20 27  1  0  0  0  0
 22 23  1  6  0  0  0
 22 29  1  0  0  0  0
 24  2  1  6  0  0  0
 24 31  1  0  0  0  0
 25 26  1  0  0  0  0
 25 33  1  1  0  0  0
 27 28  1  1  0  0  0
 27 35  1  0  0  0  0
 29 30  1  0  0  0  0
 29 37  1  6  0  0  0
 31 32  1  1  0  0  0
 31 39  1  0  0  0  0
 33 34  1  0  0  0  0
 35 36  1  0  0  0  0
 35 41  1  1  0  0  0
 37 38  1  0  0  0  0
 39 40  1  6  0  0  0
 41 42  1  0  0  0  0
M  END
>  <CHROM.1>
-135.64819372,-173.02850061,-178.36584869,166.23437480,34.77615191,176.31791294
69.23994315,89.92452307,175.19113025,37.20213062,43.26127561,-5.10440377
-2.35586702,0.75936758,-0.72506523

>  <Name>
3c44_lig

>  <RI>
0

>  <Rbt.Current_Directory>
/home/itssahil/PROJECTS/Mol_Feturizer/New_Systems/rnas/3c44

>  <Rbt.Executable>
rbdock ($Id: //depot/dev/client3/rdock/2013.1/src/exe/rbdock.cxx#4 $)

>  <Rbt.Library>
libRbt.so (2013.1, Build901 2013/11/27)

>  <Rbt.Parameter_File>
/export/apps/rDock/src/rDock_2013.1_src/data/scripts/dock_solv.prm

>  <Rbt.Receptor>
prm/blind_docking_100.prm

>  <SCORE>
11.9234

>  <SCORE.INTER>
0.860575

>  <SCORE.INTER.CONST>
1

>  <SCORE.INTER.POLAR>
0

>  <SCORE.INTER.ROT>
9

>  <SCORE.INTER.SOLV>
23.9335

>  <SCORE.INTER.VDW>
-17.0041

>  <SCORE.INTER.norm>
0.0204899

>  <SCORE.INTRA>
9.08374

>  <SCORE.INTRA.DIHEDRAL>
-0.558

>  <SCORE.INTRA.DIHEDRAL.0>
14.8538

>  <SCORE.INTRA.POLAR>
0

>  <SCORE.INTRA.POLAR.0>
0

>  <SCORE.INTRA.REPUL>
0.202209

>  <SCORE.INTRA.REPUL.0>
0

>  <SCORE.INTRA.SOLV>
4.13022

>  <SCORE.INTRA.SOLV.lig_0>
-100.951

>  <SCORE.INTRA.VDW>
6.28659

>  <SCORE.INTRA.VDW.0>
-5.71388

>  <SCORE.INTRA.norm>
0.21628

>  <SCORE.RESTR>
1.97906

>  <SCORE.RESTR.CAVITY>
1.97906

>  <SCORE.RESTR.norm>
0.0471204

>  <SCORE.SYSTEM>
0

>  <SCORE.SYSTEM.CONST>
0

>  <SCORE.SYSTEM.DIHEDRAL>
0

>  <SCORE.SYSTEM.SOLV>
0

>  <SCORE.SYSTEM.norm>
0

>  <SCORE.heavy>
42

>  <SCORE.norm>
0.28389

>  <RMSD>
11.139

$$$$
3c44_lig
 OpenBabel11021811463D
libRbt.so/2013.1/901 2013/11/27
 42 45  0  0  0  0  0  0  0  0999 V2000
   37.2352   41.1840   -2.5986 C   0  0  2  0  0  0  0  0  0  0  0  0
   35.9802   41.8170   -2.8920 O   0  0  0  0  0  0  0  0  0  0  0  0
   33.2641   44.3980   -1.1170 C   0  0  2  0  0  0  0  0  0  0  0  0
   32.4345   45.3143   -0.3195 N   0  0  0  0  0  0  0  0  0  0  0  0
   37.1558   44.5565   -4.0465 C   0  0  1  0  0  0  0  0  0  0  0  0
   38.6810   45.1271   -7.9643 C   0  0  1  0  0  0  0  0  0  0  0  0
   37.6707   40.3505   -3.8084 C   0  0  2  0  0  0  0  0  0  0  0  0
   37.7055   41.1731   -5.0262 N   0  0  0  0  0  0  0  0  0  0  0  0
   33.5352   43.1042   -0.3438 C   0  0  0  0  0  0  0  0  0  0  0  0
   38.1374   45.6852   -4.3652 C   0  0  2  0  0  0  0  0  0  0  0  0
   37.4218   46.8598   -4.7525 O   0  0  0  0  0  0  0  0  0  0  0  0
   37.7329   45.3895   -9.1391 C   0  0  2  0  0  0  0  0  0  0  0  0
   36.6459   44.4022   -9.0842 N   0  0  0  0  0  0  0  0  0  0  0  0
   36.7310   39.1634   -4.0339 C   0  0  1  0  0  0  0  0  0  0  0  0
   37.2639   38.3304   -5.0680 O   0  0  0  0  0  0  0  0  0  0  0  0
   34.2655   42.1417   -1.2864 C   0  0  2  0  0  0  0  0  0  0  0  0
   34.5982   40.9075   -0.5591 N   0  0  0  0  0  0  0  0  0  0  0  0
   38.8173   45.0939   -5.5985 C   0  0  2  0  0  0  0  0  0  0  0  0
   37.9365   45.1274   -6.7335 O   0  0  0  0  0  0  0  0  0  0  0  0
   38.4626   45.2493  -10.4814 C   0  0  1  0  0  0  0  0  0  0  0  0
   39.3726   46.3361  -10.6708 O   0  0  0  0  0  0  0  0  0  0  0  0
   36.5983   38.3538   -2.7428 C   0  0  2  0  0  0  0  0  0  0  0  0
   35.6360   37.3119   -2.9258 O   0  0  0  0  0  0  0  0  0  0  0  0
   35.5539   42.7350   -1.8701 C   0  0  2  0  0  0  0  0  0  0  0  0
   39.0091   43.6549   -5.1460 C   0  0  2  0  0  0  0  0  0  0  0  0
   37.9376   43.3607   -4.2237 O   0  0  0  0  0  0  0  0  0  0  0  0
   39.2445   43.9364  -10.5476 C   0  0  2  0  0  0  0  0  0  0  0  0
   38.3174   42.8476  -10.5817 O   0  0  0  0  0  0  0  0  0  0  0  0
   36.1515   39.2735   -1.6054 C   0  0  2  0  0  0  0  0  0  0  0  0
   37.0966   40.3481   -1.4345 O   0  0  0  0  0  0  0  0  0  0  0  0
   35.3924   44.1400   -2.4466 C   0  0  2  0  0  0  0  0  0  0  0  0
   36.6903   44.7049   -2.6937 O   0  0  0  0  0  0  0  0  0  0  0  0
   40.3733   43.5113   -4.4679 C   0  0  0  0  0  0  0  0  0  0  0  0
   40.6247   42.1277   -4.2120 O   0  0  0  0  0  0  0  0  0  0  0  0
   40.1470   43.8318   -9.3153 C   0  0  1  0  0  0  0  0  0  0  0  0
   39.3167   43.8511   -8.1408 O   0  0  0  0  0  0  0  0  0  0  0  0
   36.0795   38.4319   -0.3287 C   0  0  0  0  0  0  0  0  0  0  0  0
   35.9299   39.3057    0.8439 O   0  0  0  0  0  0  0  0  0  0  0  0
   34.6040   45.0392   -1.4870 C   0  0  1  0  0  0  0  0  0  0  0  0
   34.3877   46.3200   -2.0834 O   0  0  0  0  0  0  0  0  0  0  0  0
   40.9821   42.5508   -9.3165 C   0  0  0  0  0  0  0  0  0  0  0  0
   40.1191   41.4104   -8.9785 N   0  0  0  0  0  0  0  0  0  0  0  0
  1  2  1  6  0  0  0
  1  7  1  0  0  0  0
  1 30  1  0  0  0  0
  3  4  1  1  0  0  0
  3  9  1  0  0  0  0
  3 39  1  0  0  0  0
  5 10  1  0  0  0  0
  5 26  1  0  0  0  0
  5 32  1  1  0  0  0
  6 12  1  0  0  0  0
  6 36  1  0  0  0  0
  6 19  1  1  0  0  0
  7  8  1  6  0  0  0
  7 14  1  0  0  0  0
  9 16  1  0  0  0  0
 10 11  1  6  0  0  0
 10 18  1  0  0  0  0
 12 13  1  6  0  0  0
 12 20  1  0  0  0  0
 14 15  1  6  0  0  0
 14 22  1  0  0  0  0
 16 17  1  1  0  0  0
 16 24  1  0  0  0  0
 18 19  1  6  0  0  0
 18 25  1  0  0  0  0
 20 21  1  1  0  0  0
 20 27  1  0  0  0  0
 22 23  1  6  0  0  0
 22 29  1  0  0  0  0
 24  2  1  6  0  0  0
 24 31  1  0  0  0  0
 25 26  1  0  0  0  0
 25 33  1  1  0  0  0
 27 28  1  1  0  0  0
 27 35  1  0  0  0  0
 29 30  1  0  0  0  0
 29 37  1  1  0  0  0
 31 32  1  1  0  0  0
 31 39  1  0  0  0  0
 33 34  1  0  0  0  0
 35 36  1  0  0  0  0
 35 41  1  6  0  0  0
 37 38  1  0  0  0  0
 39 40  1  6  0  0  0
 41 42  1  0  0  0  0
M  END
>  <CHROM.1>
-173.87540589,153.55393443,-170.95834919,155.48556233,-115.33363452,-172.08810453
168.26334401,95.94806626,-74.55930196,37.18647625,42.81508726,-4.60933370
-2.44552945,0.99614338,-0.40831216

>  <Name>
3c44_lig

>  <RI>
0

>  <Rbt.Current_Directory>
/home/itssahil/PROJECTS/Mol_Feturizer/New_Systems/rnas/3c44

>  <Rbt.Executable>
rbdock ($Id: //depot/dev/client3/rdock/2013.1/src/exe/rbdock.cxx#4 $)

>  <Rbt.Library>
libRbt.so (2013.1, Build901 2013/11/27)

>  <Rbt.Parameter_File>
/export/apps/rDock/src/rDock_2013.1_src/data/scripts/dock_solv.prm

>  <Rbt.Receptor>
prm/blind_docking_100.prm

>  <SCORE>
26.7114

>  <SCORE.INTER>
12.259

>  <SCORE.INTER.CONST>
1

>  <SCORE.INTER.POLAR>
-0.546684

>  <SCORE.INTER.ROT>
9

>  <SCORE.INTER.SOLV>
17.0761

>  <SCORE.INTER.VDW>
-5.2971

>  <SCORE.INTER.norm>
0.29188

>  <SCORE.INTRA>
9.67788

>  <SCORE.INTRA.DIHEDRAL>
4.53387

>  <SCORE.INTRA.DIHEDRAL.0>
14.8538

>  <SCORE.INTRA.POLAR>
0

>  <SCORE.INTRA.POLAR.0>
0

>  <SCORE.INTRA.REPUL>
0.0444602

>  <SCORE.INTRA.REPUL.0>
0

>  <SCORE.INTRA.SOLV>
5.40932

>  <SCORE.INTRA.SOLV.lig_0>
-100.951

>  <SCORE.INTRA.VDW>
4.48399

>  <SCORE.INTRA.VDW.0>
-5.71388

>  <SCORE.INTRA.norm>
0.230426

>  <SCORE.RESTR>
4.77456

>  <SCORE.RESTR.CAVITY>
4.77456

>  <SCORE.RESTR.norm>
0.11368

>  <SCORE.SYSTEM>
0

>  <SCORE.SYSTEM.CONST>
0

>  <SCORE.SYSTEM.DIHEDRAL>
0

>  <SCORE.SYSTEM.SOLV>
0

>  <SCORE.SYSTEM.norm>
0

>  <SCORE.heavy>
42

>  <SCORE.norm>
0.635986

>  <RMSD>
11.259

$$$$
3c44_lig
 OpenBabel11021811463D
libRbt.so/2013.1/901 2013/11/27
 42 45  0  0  0  0  0  0  0  0999 V2000
   39.1266   40.2773   -8.6670 C   0  0  2  0  0  0  0  0  0  0  0  0
   39.4749   39.5030   -7.5090 O   0  0  0  0  0  0  0  0  0  0  0  0
   35.5034   39.5653   -6.3202 C   0  0  2  0  0  0  0  0  0  0  0  0
   34.1301   39.3896   -5.8231 N   0  0  0  0  0  0  0  0  0  0  0  0
   38.7666   40.8931   -3.6359 C   0  0  1  0  0  0  0  0  0  0  0  0
   37.6299   42.0544   -1.7247 C   0  0  1  0  0  0  0  0  0  0  0  0
   40.3464   41.0920   -9.1101 C   0  0  2  0  0  0  0  0  0  0  0  0
   41.5101   40.2193   -9.3230 N   0  0  0  0  0  0  0  0  0  0  0  0
   35.8791   38.4323   -7.2796 C   0  0  0  0  0  0  0  0  0  0  0  0
   40.0687   40.9631   -2.8366 C   0  0  2  0  0  0  0  0  0  0  0  0
   40.0461   39.9999   -1.7814 O   0  0  0  0  0  0  0  0  0  0  0  0
   36.7970   43.3360   -1.8327 C   0  0  2  0  0  0  0  0  0  0  0  0
   36.7783   43.9865   -0.5152 N   0  0  0  0  0  0  0  0  0  0  0  0
   40.7067   42.1619   -8.0763 C   0  0  1  0  0  0  0  0  0  0  0  0
   41.7443   42.9949   -8.6024 O   0  0  0  0  0  0  0  0  0  0  0  0
   37.2524   38.7611   -7.8747 C   0  0  2  0  0  0  0  0  0  0  0  0
   37.6757   37.6630   -8.7568 N   0  0  0  0  0  0  0  0  0  0  0  0
   39.9247   42.3585   -2.2326 C   0  0  2  0  0  0  0  0  0  0  0  0
   38.9304   42.3667   -1.1952 O   0  0  0  0  0  0  0  0  0  0  0  0
   35.3545   43.0252   -2.2527 C   0  0  1  0  0  0  0  0  0  0  0  0
   35.3118   42.6052   -3.6190 O   0  0  0  0  0  0  0  0  0  0  0  0
   39.4764   43.0150   -7.7619 C   0  0  2  0  0  0  0  0  0  0  0  0
   39.7878   43.9404   -6.7171 O   0  0  0  0  0  0  0  0  0  0  0  0
   38.3316   38.9832   -6.8078 C   0  0  2  0  0  0  0  0  0  0  0  0
   39.4093   43.1301   -3.4372 C   0  0  2  0  0  0  0  0  0  0  0  0
   38.6690   42.1923   -4.2483 O   0  0  0  0  0  0  0  0  0  0  0  0
   34.7537   41.9216   -1.3804 C   0  0  2  0  0  0  0  0  0  0  0  0
   34.5901   42.4216   -0.0502 O   0  0  0  0  0  0  0  0  0  0  0  0
   38.3247   42.1099   -7.3219 C   0  0  2  0  0  0  0  0  0  0  0  0
   38.0248   41.1496   -8.3539 O   0  0  0  0  0  0  0  0  0  0  0  0
   37.9171   39.9306   -5.6839 C   0  0  2  0  0  0  0  0  0  0  0  0
   38.8679   39.8402   -4.6104 O   0  0  0  0  0  0  0  0  0  0  0  0
   40.5920   43.7140   -4.2129 C   0  0  0  0  0  0  0  0  0  0  0  0
   41.2524   42.6619   -4.9200 O   0  0  0  0  0  0  0  0  0  0  0  0
   35.6954   40.7146   -1.3859 C   0  0  1  0  0  0  0  0  0  0  0  0
   36.9660   41.1267   -0.8518 O   0  0  0  0  0  0  0  0  0  0  0  0
   37.1062   43.0004   -7.0656 C   0  0  0  0  0  0  0  0  0  0  0  0
   36.8406   43.8425   -8.2409 O   0  0  0  0  0  0  0  0  0  0  0  0
   36.5131   39.5903   -5.1700 C   0  0  1  0  0  0  0  0  0  0  0  0
   36.1098   40.5421   -4.1828 O   0  0  0  0  0  0  0  0  0  0  0  0
   35.1542   39.5542   -0.5499 C   0  0  0  0  0  0  0  0  0  0  0  0
   35.0509   39.9763    0.8540 N   0  0  0  0  0  0  0  0  0  0  0  0
  1  2  1  1  0  0  0
  1  7  1  0  0  0  0
  1 30  1  0  0  0  0
  3  4  1  1  0  0  0
  3  9  1  0  0  0  0
  3 39  1  0  0  0  0
  5 10  1  0  0  0  0
  5 26  1  0  0  0  0
  5 32  1  6  0  0  0
  6 12  1  0  0  0  0
  6 36  1  0  0  0  0
  6 19  1  1  0  0  0
  7  8  1  1  0  0  0
  7 14  1  0  0  0  0
  9 16  1  0  0  0  0
 10 11  1  1  0  0  0
 10 18  1  0  0  0  0
 12 13  1  1  0  0  0
 12 20  1  0  0  0  0
 14 15  1  6  0  0  0
 14 22  1  0  0  0  0
 16 17  1  6  0  0  0
 16 24  1  0  0  0  0
 18 19  1  1  0  0  0
 18 25  1  0  0  0  0
 20 21  1  6  0  0  0
 20 27  1  0  0  0  0
 22 23  1  1  0  0  0
 22 29  1  0  0  0  0
 24  2  1  6  0  0  0
 24 31  1  0  0  0  0
 25 26  1  0  0  0  0
 25 33  1  6  0  0  0
 27 28  1  1  0  0  0
 27 35  1  0  0  0  0
 29 30  1  0  0  0  0
 29 37  1  6  0  0  0
 31 32  1  1  0  0  0
 31 39  1  0  0  0  0
 33 34  1  0  0  0  0
 35 36  1  0  0  0  0
 35 41  1  1  0  0  0
 37 38  1  0  0  0  0
 39 40  1  1  0  0  0
 41 42  1  0  0  0  0
M  END
>  <CHROM.1>
164.52474603,-161.42840013,-103.79383633,-63.70969227,30.52861121,73.89308846
53.13154941,166.36937312,-62.92617132,37.93084243,41.33415343,-4.77594366
1.05697186,-0.59358411,-1.95821963

>  <Name>
3c44_lig

>  <RI>
224

>  <Rbt.Current_Directory>
/home/itssahil/PROJECTS/Mol_Feturizer/New_Systems/rnas/3c44

>  <Rbt.Executable>
rbdock ($Id: //depot/dev/client3/rdock/2013.1/src/exe/rbdock.cxx#4 $)

>  <Rbt.Library>
libRbt.so (2013.1, Build901 2013/11/27)

>  <Rbt.Parameter_File>
/export/apps/rDock/src/rDock_2013.1_src/data/scripts/dock_solv.prm

>  <Rbt.Receptor>
prm/blind_docking_60.prm

>  <SCORE>
46.0785

>  <SCORE.INTER>
17.0843

>  <SCORE.INTER.CONST>
1

>  <SCORE.INTER.POLAR>
-0.481552

>  <SCORE.INTER.ROT>
9

>  <SCORE.INTER.SOLV>
35.9125

>  <SCORE.INTER.VDW>
-8.57614

>  <SCORE.INTER.norm>
0.406769

>  <SCORE.INTRA>
20.9236

>  <SCORE.INTRA.DIHEDRAL>
-0.481698

>  <SCORE.INTRA.DIHEDRAL.0>
14.8538

>  <SCORE.INTRA.POLAR>
0

>  <SCORE.INTRA.POLAR.0>
0

>  <SCORE.INTRA.REPUL>
0

>  <SCORE.INTRA.REPUL.0>
0

>  <SCORE.INTRA.SOLV>
3.435

>  <SCORE.INTRA.SOLV.lig_0>
-100.951

>  <SCORE.INTRA.VDW>
19.447

>  <SCORE.INTRA.VDW.0>
-5.71388

>  <SCORE.INTRA.norm>
0.498181

>  <SCORE.RESTR>
8.07056

>  <SCORE.RESTR.CAVITY>
8.07056

>  <SCORE.RESTR.norm>
0.192156

>  <SCORE.SYSTEM>
0

>  <SCORE.SYSTEM.CONST>
0

>  <SCORE.SYSTEM.DIHEDRAL>
0

>  <SCORE.SYSTEM.SOLV>
0

>  <SCORE.SYSTEM.norm>
0

>  <SCORE.heavy>
42

>  <SCORE.norm>
1.09711

>  <RMSD>
11.263

$$$$
3c44_lig
 OpenBabel11021811463D
libRbt.so/2013.1/901 2013/11/27
 42 45  0  0  0  0  0  0  0  0999 V2000
   36.9704   40.6370   -1.8915 C   0  0  2  0  0  0  0  0  0  0  0  0
   36.2595   41.7336   -2.4864 O   0  0  0  0  0  0  0  0  0  0  0  0
   32.8898   43.4533   -0.7900 C   0  0  2  0  0  0  0  0  0  0  0  0
   31.8247   44.1241   -0.0288 N   0  0  0  0  0  0  0  0  0  0  0  0
   36.5766   44.4540   -3.8627 C   0  0  1  0  0  0  0  0  0  0  0  0
   38.4063   44.7237   -7.6776 C   0  0  1  0  0  0  0  0  0  0  0  0
   38.4686   40.8035   -2.1661 C   0  0  2  0  0  0  0  0  0  0  0  0
   38.9420   42.1184   -1.7102 N   0  0  0  0  0  0  0  0  0  0  0  0
   33.5903   42.4011    0.0746 C   0  0  0  0  0  0  0  0  0  0  0  0
   37.5114   45.6124   -4.2140 C   0  0  2  0  0  0  0  0  0  0  0  0
   36.7622   46.6908   -4.7774 O   0  0  0  0  0  0  0  0  0  0  0  0
   37.5960   44.2109   -8.8727 C   0  0  2  0  0  0  0  0  0  0  0  0
   36.9548   42.9463   -8.4869 N   0  0  0  0  0  0  0  0  0  0  0  0
   38.7820   40.6488   -3.6564 C   0  0  1  0  0  0  0  0  0  0  0  0
   40.2007   40.6533   -3.8426 O   0  0  0  0  0  0  0  0  0  0  0  0
   34.5733   41.6402   -0.8215 C   0  0  2  0  0  0  0  0  0  0  0  0
   35.3113   40.6596   -0.0111 N   0  0  0  0  0  0  0  0  0  0  0  0
   38.3331   44.9531   -5.3200 C   0  0  2  0  0  0  0  0  0  0  0  0
   37.5561   44.8145   -6.5209 O   0  0  0  0  0  0  0  0  0  0  0  0
   38.4994   43.9585  -10.0869 C   0  0  1  0  0  0  0  0  0  0  0  0
   38.9592   45.1975  -10.6331 O   0  0  0  0  0  0  0  0  0  0  0  0
   38.2027   39.3312   -4.1747 C   0  0  2  0  0  0  0  0  0  0  0  0
   38.4013   39.2420   -5.5880 O   0  0  0  0  0  0  0  0  0  0  0  0
   35.5800   42.5594   -1.5245 C   0  0  2  0  0  0  0  0  0  0  0  0
   38.5720   43.5819   -4.7078 C   0  0  2  0  0  0  0  0  0  0  0  0
   37.4430   43.3044   -3.8512 O   0  0  0  0  0  0  0  0  0  0  0  0
   39.7129   43.1105   -9.7023 C   0  0  2  0  0  0  0  0  0  0  0  0
   39.2682   41.7933   -9.3656 O   0  0  0  0  0  0  0  0  0  0  0  0
   36.7072   39.2705   -3.8598 C   0  0  2  0  0  0  0  0  0  0  0  0
   36.4926   39.3945   -2.4401 O   0  0  0  0  0  0  0  0  0  0  0  0
   34.9512   43.7713   -2.2090 C   0  0  2  0  0  0  0  0  0  0  0  0
   35.9846   44.7002   -2.5752 O   0  0  0  0  0  0  0  0  0  0  0  0
   39.8769   43.6007   -3.9087 C   0  0  0  0  0  0  0  0  0  0  0  0
   40.2764   44.9567   -3.6979 O   0  0  0  0  0  0  0  0  0  0  0  0
   40.4152   43.7597   -8.5068 C   0  0  1  0  0  0  0  0  0  0  0  0
   39.4867   43.8156   -7.4095 O   0  0  0  0  0  0  0  0  0  0  0  0
   36.1836   37.9189   -4.3522 C   0  0  0  0  0  0  0  0  0  0  0  0
   36.0761   36.9792   -3.2269 O   0  0  0  0  0  0  0  0  0  0  0  0
   33.9347   44.4554   -1.2873 C   0  0  1  0  0  0  0  0  0  0  0  0
   33.2946   45.5307   -1.9780 O   0  0  0  0  0  0  0  0  0  0  0  0
   41.6570   42.9805   -8.0719 C   0  0  0  0  0  0  0  0  0  0  0  0
   41.2414   41.7154   -7.4506 N   0  0  0  0  0  0  0  0  0  0  0  0
  1  2  1  6  0  0  0
  1  7  1  0  0  0  0
  1 30  1  0  0  0  0
  3  4  1  1  0  0  0
  3  9  1  0  0  0  0
  3 39  1  0  0  0  0
  5 10  1  0  0  0  0
  5 26  1  0  0  0  0
  5 32  1  1  0  0  0
  6 12  1  0  0  0  0
  6 36  1  0  0  0  0
  6 19  1  1  0  0  0
  7  8  1  6  0  0  0
  7 14  1  0  0  0  0
  9 16  1  0  0  0  0
 10 11  1  6  0  0  0
 10 18  1  0  0  0  0
 12 13  1  1  0  0  0
 12 20  1  0  0  0  0
 14 15  1  1  0  0  0
 14 22  1  0  0  0  0
 16 17  1  1  0  0  0
 16 24  1  0  0  0  0
 18 19  1  6  0  0  0
 18 25  1  0  0  0  0
 20 21  1  1  0  0  0
 20 27  1  0  0  0  0
 22 23  1  6  0  0  0
 22 29  1  0  0  0  0
 24  2  1  6  0  0  0
 24 31  1  0  0  0  0
 25 26  1  0  0  0  0
 25 33  1  1  0  0  0
 27 28  1  1  0  0  0
 27 35  1  0  0  0  0
 29 30  1  0  0  0  0
 29 37  1  1  0  0  0
 31 32  1  1  0  0  0
 31 39  1  0  0  0  0
 33 34  1  0  0  0  0
 35 36  1  0  0  0  0
 35 41  1  1  0  0  0
 37 38  1  0  0  0  0
 39 40  1  6  0  0  0
 41 42  1  0  0  0  0
M  END
>  <CHROM.1>
-116.70923549,172.17404599,165.06555061,156.47835391,-60.86354185,14.85972961
99.67067981,87.27246133,-70.67131655,37.36746299,42.66923856,-4.48703258
-2.61878912,0.89530479,-0.44662927

>  <Name>
3c44_lig

>  <RI>
0

>  <Rbt.Current_Directory>
/home/itssahil/PROJECTS/Mol_Feturizer/New_Systems/rnas/3c44

>  <Rbt.Executable>
rbdock ($Id: //depot/dev/client3/rdock/2013.1/src/exe/rbdock.cxx#4 $)

>  <Rbt.Library>
libRbt.so (2013.1, Build901 2013/11/27)

>  <Rbt.Parameter_File>
/export/apps/rDock/src/rDock_2013.1_src/data/scripts/dock_solv.prm

>  <Rbt.Receptor>
prm/blind_docking_100.prm

>  <SCORE>
5.54951

>  <SCORE.INTER>
-11.9251

>  <SCORE.INTER.CONST>
1

>  <SCORE.INTER.POLAR>
-0.546064

>  <SCORE.INTER.ROT>
9

>  <SCORE.INTER.SOLV>
20.0007

>  <SCORE.INTER.VDW>
-22.3968

>  <SCORE.INTER.norm>
-0.283932

>  <SCORE.INTRA>
15.2763

>  <SCORE.INTRA.DIHEDRAL>
8.22774

>  <SCORE.INTRA.DIHEDRAL.0>
14.8538

>  <SCORE.INTRA.POLAR>
0

>  <SCORE.INTRA.POLAR.0>
0

>  <SCORE.INTRA.REPUL>
0.387395

>  <SCORE.INTRA.REPUL.0>
0

>  <SCORE.INTRA.SOLV>
4.8882

>  <SCORE.INTRA.SOLV.lig_0>
-100.951

>  <SCORE.INTRA.VDW>
6.78134

>  <SCORE.INTRA.VDW.0>
-5.71388

>  <SCORE.INTRA.norm>
0.363721

>  <SCORE.RESTR>
2.19836

>  <SCORE.RESTR.CAVITY>
2.19836

>  <SCORE.RESTR.norm>
0.052342

>  <SCORE.SYSTEM>
0

>  <SCORE.SYSTEM.CONST>
0

>  <SCORE.SYSTEM.DIHEDRAL>
0

>  <SCORE.SYSTEM.SOLV>
0

>  <SCORE.SYSTEM.norm>
0

>  <SCORE.heavy>
42

>  <SCORE.norm>
0.132131

>  <RMSD>
11.301

$$$$
3c44_lig
 OpenBabel11021811463D
libRbt.so/2013.1/901 2013/11/27
 42 45  0  0  0  0  0  0  0  0999 V2000
   37.8607   44.5443   -7.3934 C   0  0  2  0  0  0  0  0  0  0  0  0
   37.2781   43.5140   -8.2063 O   0  0  0  0  0  0  0  0  0  0  0  0
   36.4085   39.4643   -8.0234 C   0  0  2  0  0  0  0  0  0  0  0  0
   36.2370   38.0215   -7.7934 N   0  0  0  0  0  0  0  0  0  0  0  0
   36.2349   42.1959   -4.7981 C   0  0  1  0  0  0  0  0  0  0  0  0
   37.8610   40.8017   -3.5987 C   0  0  1  0  0  0  0  0  0  0  0  0
   37.6927   45.8940   -8.0991 C   0  0  2  0  0  0  0  0  0  0  0  0
   36.2814   46.1415   -8.4276 N   0  0  0  0  0  0  0  0  0  0  0  0
   37.8864   39.8049   -8.2360 C   0  0  0  0  0  0  0  0  0  0  0  0
   37.0415   43.4079   -4.3295 C   0  0  2  0  0  0  0  0  0  0  0  0
   38.2846   43.4681   -5.0314 O   0  0  0  0  0  0  0  0  0  0  0  0
   37.2112   39.7678   -2.6732 C   0  0  2  0  0  0  0  0  0  0  0  0
   38.1587   39.4535   -1.5949 N   0  0  0  0  0  0  0  0  0  0  0  0
   38.5233   45.9579   -9.3833 C   0  0  1  0  0  0  0  0  0  0  0  0
   38.4606   47.2830   -9.9196 O   0  0  0  0  0  0  0  0  0  0  0  0
   37.9730   41.2852   -8.6224 C   0  0  2  0  0  0  0  0  0  0  0  0
   39.3853   41.6660   -8.7755 N   0  0  0  0  0  0  0  0  0  0  0  0
   37.3117   42.9936   -2.8844 C   0  0  2  0  0  0  0  0  0  0  0  0
   38.2867   41.9394   -2.8283 O   0  0  0  0  0  0  0  0  0  0  0  0
   36.8783   38.4767   -3.4324 C   0  0  1  0  0  0  0  0  0  0  0  0
   35.7913   38.6949   -4.3356 O   0  0  0  0  0  0  0  0  0  0  0  0
   39.9787   45.5981   -9.0787 C   0  0  2  0  0  0  0  0  0  0  0  0
   40.7270   45.5516  -10.2964 O   0  0  0  0  0  0  0  0  0  0  0  0
   37.3187   42.2140   -7.5920 C   0  0  2  0  0  0  0  0  0  0  0  0
   35.9479   42.4464   -2.4934 C   0  0  2  0  0  0  0  0  0  0  0  0
   35.3436   41.9304   -3.6992 O   0  0  0  0  0  0  0  0  0  0  0  0
   38.0864   37.9800   -4.2283 C   0  0  2  0  0  0  0  0  0  0  0  0
   39.0983   37.5510   -3.3128 O   0  0  0  0  0  0  0  0  0  0  0  0
   40.0351   44.2352   -8.3871 C   0  0  2  0  0  0  0  0  0  0  0  0
   39.2552   44.2598   -7.1753 O   0  0  0  0  0  0  0  0  0  0  0  0
   35.9190   41.7831   -7.1587 C   0  0  2  0  0  0  0  0  0  0  0  0
   35.5256   42.5386   -6.0014 O   0  0  0  0  0  0  0  0  0  0  0  0
   35.1013   43.5698   -1.8913 C   0  0  0  0  0  0  0  0  0  0  0  0
   34.9751   44.6242   -2.8481 O   0  0  0  0  0  0  0  0  0  0  0  0
   38.6080   39.1213   -5.1055 C   0  0  1  0  0  0  0  0  0  0  0  0
   38.9967   40.2108   -4.2504 O   0  0  0  0  0  0  0  0  0  0  0  0
   41.5013   43.9409   -8.0598 C   0  0  0  0  0  0  0  0  0  0  0  0
   41.5986   43.2255   -6.7793 O   0  0  0  0  0  0  0  0  0  0  0  0
   35.8804   40.2832   -6.8428 C   0  0  1  0  0  0  0  0  0  0  0  0
   34.5448   39.8843   -6.5265 O   0  0  0  0  0  0  0  0  0  0  0  0
   39.8085   38.6978   -5.9529 C   0  0  0  0  0  0  0  0  0  0  0  0
   40.4539   39.8949   -6.5096 N   0  0  0  0  0  0  0  0  0  0  0  0
  1  2  1  6  0  0  0
  1  7  1  0  0  0  0
  1 30  1  0  0  0  0
  3  4  1  1  0  0  0
  3  9  1  0  0  0  0
  3 39  1  0  0  0  0
  5 10  1  0  0  0  0
  5 26  1  0  0  0  0
  5 32  1  6  0  0  0
  6 12  1  0  0  0  0
  6 36  1  0  0  0  0
  6 19  1  1  0  0  0
  7  8  1  6  0  0  0
  7 14  1  0  0  0  0
  9 16  1  0  0  0  0
 10 11  1  6  0  0  0
 10 18  1  0  0  0  0
 12 13  1  1  0  0  0
 12 20  1  0  0  0  0
 14 15  1  1  0  0  0
 14 22  1  0  0  0  0
 16 17  1  1  0  0  0
 16 24  1  0  0  0  0
 18 19  1  6  0  0  0
 18 25  1  0  0  0  0
 20 21  1  6  0  0  0
 20 27  1  0  0  0  0
 22 23  1  6  0  0  0
 22 29  1  0  0  0  0
 24  2  1  6  0  0  0
 24 31  1  0  0  0  0
 25 26  1  0  0  0  0
 25 33  1  6  0  0  0
 27 28  1  1  0  0  0
 27 35  1  0  0  0  0
 29 30  1  0  0  0  0
 29 37  1  1  0  0  0
 31 32  1  1  0  0  0
 31 39  1  0  0  0  0
 33 34  1  0  0  0  0
 35 36  1  0  0  0  0
 35 41  1  1  0  0  0
 37 38  1  0  0  0  0
 39 40  1  6  0  0  0
 41 42  1  0  0  0  0
M  END
>  <CHROM.1>
-176.70054486,116.47834079,-97.21603989,-57.23500426,-127.17366891,58.36185258
144.20170854,-70.68070330,-166.35011338,37.76228316,42.02888881,-6.00399555
1.12409027,0.95002697,-0.37876546

>  <Name>
3c44_lig

>  <RI>
0

>  <Rbt.Current_Directory>
/home/itssahil/PROJECTS/Mol_Feturizer/New_Systems/rnas/3c44

>  <Rbt.Executable>
rbdock ($Id: //depot/dev/client3/rdock/2013.1/src/exe/rbdock.cxx#4 $)

>  <Rbt.Library>
libRbt.so (2013.1, Build901 2013/11/27)

>  <Rbt.Parameter_File>
/export/apps/rDock/src/rDock_2013.1_src/data/scripts/dock_solv.prm

>  <Rbt.Receptor>
prm/blind_docking_80.prm

>  <SCORE>
18.6381

>  <SCORE.INTER>
-8.33551

>  <SCORE.INTER.CONST>
1

>  <SCORE.INTER.POLAR>
-1.20969

>  <SCORE.INTER.ROT>
9

>  <SCORE.INTER.SOLV>
26.9099

>  <SCORE.INTER.VDW>
-20.0947

>  <SCORE.INTER.norm>
-0.198465

>  <SCORE.INTRA>
21.9957

>  <SCORE.INTRA.DIHEDRAL>
9.08245

>  <SCORE.INTRA.DIHEDRAL.0>
14.8538

>  <SCORE.INTRA.POLAR>
0

>  <SCORE.INTRA.POLAR.0>
0

>  <SCORE.INTRA.REPUL>
0.313939

>  <SCORE.INTRA.REPUL.0>
0

>  <SCORE.INTRA.SOLV>
9.16355

>  <SCORE.INTRA.SOLV.lig_0>
-100.951

>  <SCORE.INTRA.VDW>
11.303

>  <SCORE.INTRA.VDW.0>
-5.71388

>  <SCORE.INTRA.norm>
0.523706

>  <SCORE.RESTR>
4.97798

>  <SCORE.RESTR.CAVITY>
4.97798

>  <SCORE.RESTR.norm>
0.118523

>  <SCORE.SYSTEM>
0

>  <SCORE.SYSTEM.CONST>
0

>  <SCORE.SYSTEM.DIHEDRAL>
0

>  <SCORE.SYSTEM.SOLV>
0

>  <SCORE.SYSTEM.norm>
0

>  <SCORE.heavy>
42

>  <SCORE.norm>
0.443765

>  <RMSD>
11.342

$$$$
3c44_lig
 OpenBabel11021811463D
libRbt.so/2013.1/901 2013/11/27
 42 45  0  0  0  0  0  0  0  0999 V2000
   37.1742   41.9456   -2.1865 C   0  0  2  0  0  0  0  0  0  0  0  0
   36.6798   41.5009   -3.4591 O   0  0  0  0  0  0  0  0  0  0  0  0
   39.9127   38.9625   -4.0016 C   0  0  2  0  0  0  0  0  0  0  0  0
   41.0218   38.0840   -4.4042 N   0  0  0  0  0  0  0  0  0  0  0  0
   39.3528   42.7286   -5.8524 C   0  0  1  0  0  0  0  0  0  0  0  0
   39.0011   43.7507   -8.3030 C   0  0  1  0  0  0  0  0  0  0  0  0
   36.6424   41.0164   -1.0902 C   0  0  2  0  0  0  0  0  0  0  0  0
   36.9740   39.6149   -1.3849 N   0  0  0  0  0  0  0  0  0  0  0  0
   38.5914   38.4727   -4.6012 C   0  0  0  0  0  0  0  0  0  0  0  0
   40.7582   42.2972   -6.2741 C   0  0  2  0  0  0  0  0  0  0  0  0
   41.6591   43.4016   -6.1720 O   0  0  0  0  0  0  0  0  0  0  0  0
   38.4980   44.3587   -9.6164 C   0  0  2  0  0  0  0  0  0  0  0  0
   39.4865   45.3431  -10.0778 N   0  0  0  0  0  0  0  0  0  0  0  0
   35.1253   41.1491   -0.9355 C   0  0  1  0  0  0  0  0  0  0  0  0
   34.6988   40.3871    0.1979 O   0  0  0  0  0  0  0  0  0  0  0  0
   37.4667   39.3348   -4.0183 C   0  0  2  0  0  0  0  0  0  0  0  0
   36.1854   38.9337   -4.6186 N   0  0  0  0  0  0  0  0  0  0  0  0
   40.5045   42.0038   -7.7514 C   0  0  2  0  0  0  0  0  0  0  0  0
   40.3257   43.2225   -8.4916 O   0  0  0  0  0  0  0  0  0  0  0  0
   37.1501   45.0647   -9.4193 C   0  0  1  0  0  0  0  0  0  0  0  0
   36.1127   44.1064   -9.1950 O   0  0  0  0  0  0  0  0  0  0  0  0
   34.7507   42.6185   -0.7338 C   0  0  2  0  0  0  0  0  0  0  0  0
   33.3272   42.7511   -0.7001 O   0  0  0  0  0  0  0  0  0  0  0  0
   37.6761   40.8356   -4.2552 C   0  0  2  0  0  0  0  0  0  0  0  0
   39.1795   41.2631   -7.6633 C   0  0  2  0  0  0  0  0  0  0  0  0
   38.4913   41.7750   -6.5015 O   0  0  0  0  0  0  0  0  0  0  0  0
   37.2004   46.0225   -8.2277 C   0  0  2  0  0  0  0  0  0  0  0  0
   38.0773   47.1075   -8.5436 O   0  0  0  0  0  0  0  0  0  0  0  0
   35.3186   43.4539   -1.8822 C   0  0  2  0  0  0  0  0  0  0  0  0
   36.7502   43.3007   -1.9479 O   0  0  0  0  0  0  0  0  0  0  0  0
   39.0724   41.3387   -3.8948 C   0  0  2  0  0  0  0  0  0  0  0  0
   39.2504   42.6646   -4.4192 O   0  0  0  0  0  0  0  0  0  0  0  0
   39.4425   39.7617   -7.5293 C   0  0  0  0  0  0  0  0  0  0  0  0
   39.9799   39.2698   -8.7590 O   0  0  0  0  0  0  0  0  0  0  0  0
   37.7101   45.2631   -6.9999 C   0  0  1  0  0  0  0  0  0  0  0  0
   39.0291   44.7665   -7.2876 O   0  0  0  0  0  0  0  0  0  0  0  0
   34.9608   44.9177   -1.6127 C   0  0  0  0  0  0  0  0  0  0  0  0
   35.5034   45.7740   -2.6773 O   0  0  0  0  0  0  0  0  0  0  0  0
   40.1527   40.4051   -4.4537 C   0  0  1  0  0  0  0  0  0  0  0  0
   41.4453   40.8442   -4.0302 O   0  0  0  0  0  0  0  0  0  0  0  0
   37.7699   46.1491   -5.7549 C   0  0  0  0  0  0  0  0  0  0  0  0
   36.4442   46.7359   -5.5147 N   0  0  0  0  0  0  0  0  0  0  0  0
  1  2  1  6  0  0  0
  1  7  1  0  0  0  0
  1 30  1  0  0  0  0
  3  4  1  6  0  0  0
  3  9  1  0  0  0  0
  3 39  1  0  0  0  0
  5 10  1  0  0  0  0
  5 26  1  0  0  0  0
  5 32  1  1  0  0  0
  6 12  1  0  0  0  0
  6 36  1  0  0  0  0
  6 19  1  6  0  0  0
  7  8  1  6  0  0  0
  7 14  1  0  0  0  0
  9 16  1  0  0  0  0
 10 11  1  6  0  0  0
 10 18  1  0  0  0  0
 12 13  1  1  0  0  0
 12 20  1  0  0  0  0
 14 15  1  1  0  0  0
 14 22  1  0  0  0  0
 16 17  1  6  0  0  0
 16 24  1  0  0  0  0
 18 19  1  6  0  0  0
 18 25  1  0  0  0  0
 20 21  1  1  0  0  0
 20 27  1  0  0  0  0
 22 23  1  6  0  0  0
 22 29  1  0  0  0  0
 24  2  1  1  0  0  0
 24 31  1  0  0  0  0
 25 26  1  0  0  0  0
 25 33  1  1  0  0  0
 27 28  1  6  0  0  0
 27 35  1  0  0  0  0
 29 30  1  0  0  0  0
 29 37  1  1  0  0  0
 31 32  1  6  0  0  0
 31 39  1  0  0  0  0
 33 34  1  0  0  0  0
 35 36  1  0  0  0  0
 35 41  1  1  0  0  0
 37 38  1  0  0  0  0
 39 40  1  1  0  0  0
 41 42  1  0  0  0  0
M  END
>  <CHROM.1>
-105.13629191,-77.83701993,-142.59214476,-78.62735814,96.84762826,-69.02981710
179.04124012,-70.10755891,55.75034159,37.96977062,42.47168642,-5.12061910
2.19757799,-0.83814030,2.42266787

>  <Name>
3c44_lig

>  <RI>
0

>  <Rbt.Current_Directory>
/home/itssahil/PROJECTS/Mol_Feturizer/New_Systems/rnas/3c44

>  <Rbt.Executable>
rbdock ($Id: //depot/dev/client3/rdock/2013.1/src/exe/rbdock.cxx#4 $)

>  <Rbt.Library>
libRbt.so (2013.1, Build901 2013/11/27)

>  <Rbt.Parameter_File>
/export/apps/rDock/src/rDock_2013.1_src/data/scripts/dock_solv.prm

>  <Rbt.Receptor>
prm/blind_docking_100.prm

>  <SCORE>
16.189

>  <SCORE.INTER>
-6.80663

>  <SCORE.INTER.CONST>
1

>  <SCORE.INTER.POLAR>
0

>  <SCORE.INTER.ROT>
9

>  <SCORE.INTER.SOLV>
23.3527

>  <SCORE.INTER.VDW>
-21.922

>  <SCORE.INTER.norm>
-0.162063

>  <SCORE.INTRA>
20.8967

>  <SCORE.INTRA.DIHEDRAL>
5.27247

>  <SCORE.INTRA.DIHEDRAL.0>
14.8538

>  <SCORE.INTRA.POLAR>
0

>  <SCORE.INTRA.POLAR.0>
0

>  <SCORE.INTRA.REPUL>
0

>  <SCORE.INTRA.REPUL.0>
0

>  <SCORE.INTRA.SOLV>
2.99871

>  <SCORE.INTRA.SOLV.lig_0>
-100.951

>  <SCORE.INTRA.VDW>
16.7611

>  <SCORE.INTRA.VDW.0>
-5.71388

>  <SCORE.INTRA.norm>
0.49754

>  <SCORE.RESTR>
2.09892

>  <SCORE.RESTR.CAVITY>
2.09892

>  <SCORE.RESTR.norm>
0.0499743

>  <SCORE.SYSTEM>
0

>  <SCORE.SYSTEM.CONST>
0

>  <SCORE.SYSTEM.DIHEDRAL>
0

>  <SCORE.SYSTEM.SOLV>
0

>  <SCORE.SYSTEM.norm>
0

>  <SCORE.heavy>
42

>  <SCORE.norm>
0.385452

>  <RMSD>
11.360

$$$$
3c44_lig
 OpenBabel11021811463D
libRbt.so/2013.1/901 2013/11/27
 42 45  0  0  0  0  0  0  0  0999 V2000
   36.3980   41.4125   -8.1203 C   0  0  2  0  0  0  0  0  0  0  0  0
   36.7048   42.6940   -7.5498 O   0  0  0  0  0  0  0  0  0  0  0  0
   39.5851   43.1141  -10.5022 C   0  0  2  0  0  0  0  0  0  0  0  0
   40.5911   43.4741  -11.5132 N   0  0  0  0  0  0  0  0  0  0  0  0
   38.4354   43.3775   -5.7477 C   0  0  1  0  0  0  0  0  0  0  0  0
   36.1573   43.2204   -2.1627 C   0  0  1  0  0  0  0  0  0  0  0  0
   35.4664   40.6517   -7.1710 C   0  0  2  0  0  0  0  0  0  0  0  0
   34.2719   41.4494   -6.8581 N   0  0  0  0  0  0  0  0  0  0  0  0
   38.2660   43.8449  -10.7694 C   0  0  0  0  0  0  0  0  0  0  0  0
   39.0096   43.8093   -4.3975 C   0  0  2  0  0  0  0  0  0  0  0  0
   39.6062   42.6896   -3.7401 O   0  0  0  0  0  0  0  0  0  0  0  0
   34.7697   42.6086   -2.3819 C   0  0  2  0  0  0  0  0  0  0  0  0
   34.2181   43.1516   -3.6310 N   0  0  0  0  0  0  0  0  0  0  0  0
   36.1788   40.2859   -5.8665 C   0  0  1  0  0  0  0  0  0  0  0  0
   35.3261   39.4448   -5.0837 O   0  0  0  0  0  0  0  0  0  0  0  0
   37.2264   43.3076   -9.7803 C   0  0  2  0  0  0  0  0  0  0  0  0
   35.9593   44.0309   -9.9656 N   0  0  0  0  0  0  0  0  0  0  0  0
   37.7155   44.1736   -3.6726 C   0  0  2  0  0  0  0  0  0  0  0  0
   36.9745   42.9926   -3.3242 O   0  0  0  0  0  0  0  0  0  0  0  0
   33.8214   42.9589   -1.2278 C   0  0  1  0  0  0  0  0  0  0  0  0
   34.1992   42.2569   -0.0406 O   0  0  0  0  0  0  0  0  0  0  0  0
   37.4816   39.5463   -6.1762 C   0  0  2  0  0  0  0  0  0  0  0  0
   38.1969   39.3040   -4.9619 O   0  0  0  0  0  0  0  0  0  0  0  0
   37.6641   43.4428   -8.3165 C   0  0  2  0  0  0  0  0  0  0  0  0
   36.9843   44.9267   -4.7726 C   0  0  2  0  0  0  0  0  0  0  0  0
   37.4321   44.3711   -6.0281 O   0  0  0  0  0  0  0  0  0  0  0  0
   33.8399   44.4606   -0.9376 C   0  0  2  0  0  0  0  0  0  0  0  0
   33.2533   45.1523   -2.0437 O   0  0  0  0  0  0  0  0  0  0  0  0
   38.3389   40.3923   -7.1189 C   0  0  2  0  0  0  0  0  0  0  0  0
   37.6145   40.6723   -8.3330 O   0  0  0  0  0  0  0  0  0  0  0  0
   39.0799   42.9433   -8.0365 C   0  0  2  0  0  0  0  0  0  0  0  0
   39.4874   43.3769   -6.7285 O   0  0  0  0  0  0  0  0  0  0  0  0
   37.3196   46.4168   -4.6801 C   0  0  0  0  0  0  0  0  0  0  0  0
   36.5695   47.1270   -5.6680 O   0  0  0  0  0  0  0  0  0  0  0  0
   35.2891   44.9103   -0.7334 C   0  0  1  0  0  0  0  0  0  0  0  0
   36.0252   44.6330   -1.9378 O   0  0  0  0  0  0  0  0  0  0  0  0
   39.6053   39.5934   -7.4375 C   0  0  0  0  0  0  0  0  0  0  0  0
   40.7929   40.4440   -7.2736 O   0  0  0  0  0  0  0  0  0  0  0  0
   40.0636   43.4643   -9.0909 C   0  0  1  0  0  0  0  0  0  0  0  0
   41.3627   42.9139   -8.8619 O   0  0  0  0  0  0  0  0  0  0  0  0
   35.3929   46.4026   -0.4162 C   0  0  0  0  0  0  0  0  0  0  0  0
   34.8709   47.1760   -1.5515 N   0  0  0  0  0  0  0  0  0  0  0  0
  1  2  1  1  0  0  0
  1  7  1  0  0  0  0
  1 30  1  0  0  0  0
  3  4  1  6  0  0  0
  3  9  1  0  0  0  0
  3 39  1  0  0  0  0
  5 10  1  0  0  0  0
  5 26  1  0  0  0  0
  5 32  1  6  0  0  0
  6 12  1  0  0  0  0
  6 36  1  0  0  0  0
  6 19  1  6  0  0  0
  7  8  1  1  0  0  0
  7 14  1  0  0  0  0
  9 16  1  0  0  0  0
 10 11  1  1  0  0  0
 10 18  1  0  0  0  0
 12 13  1  6  0  0  0
 12 20  1  0  0  0  0
 14 15  1  1  0  0  0
 14 22  1  0  0  0  0
 16 17  1  1  0  0  0
 16 24  1  0  0  0  0
 18 19  1  6  0  0  0
 18 25  1  0  0  0  0
 20 21  1  1  0  0  0
 20 27  1  0  0  0  0
 22 23  1  1  0  0  0
 22 29  1  0  0  0  0
 24  2  1  1  0  0  0
 24 31  1  0  0  0  0
 25 26  1  0  0  0  0
 25 33  1  6  0  0  0
 27 28  1  6  0  0  0
 27 35  1  0  0  0  0
 29 30  1  0  0  0  0
 29 37  1  6  0  0  0
 31 32  1  1  0  0  0
 31 39  1  0  0  0  0
 33 34  1  0  0  0  0
 35 36  1  0  0  0  0
 35 41  1  6  0  0  0
 37 38  1  0  0  0  0
 39 40  1  1  0  0  0
 41 42  1  0  0  0  0
M  END
>  <CHROM.1>
175.17679603,178.03203345,136.70427230,152.64310687,44.84860514,-176.71757954
-132.10695559,36.56770422,-62.07309381,37.10086116,43.00814684,-5.56375931
0.39128380,-1.03457772,-2.97914530

>  <Name>
3c44_lig

>  <RI>
0

>  <Rbt.Current_Directory>
/home/itssahil/PROJECTS/Mol_Feturizer/New_Systems/rnas/3c44

>  <Rbt.Executable>
rbdock ($Id: //depot/dev/client3/rdock/2013.1/src/exe/rbdock.cxx#4 $)

>  <Rbt.Library>
libRbt.so (2013.1, Build901 2013/11/27)

>  <Rbt.Parameter_File>
/export/apps/rDock/src/rDock_2013.1_src/data/scripts/dock_solv.prm

>  <Rbt.Receptor>
prm/blind_docking_100.prm

>  <SCORE>
19.2791

>  <SCORE.INTER>
-0.233935

>  <SCORE.INTER.CONST>
1

>  <SCORE.INTER.POLAR>
-0.600234

>  <SCORE.INTER.ROT>
9

>  <SCORE.INTER.SOLV>
28.0261

>  <SCORE.INTER.VDW>
-17.0972

>  <SCORE.INTER.norm>
-0.00556988

>  <SCORE.INTRA>
13.6356

>  <SCORE.INTRA.DIHEDRAL>
2.77745

>  <SCORE.INTRA.DIHEDRAL.0>
14.8538

>  <SCORE.INTRA.POLAR>
0

>  <SCORE.INTRA.POLAR.0>
0

>  <SCORE.INTRA.REPUL>
0.020439

>  <SCORE.INTRA.REPUL.0>
0

>  <SCORE.INTRA.SOLV>
1.46344

>  <SCORE.INTRA.SOLV.lig_0>
-100.951

>  <SCORE.INTRA.VDW>
11.4129

>  <SCORE.INTRA.VDW.0>
-5.71388

>  <SCORE.INTRA.norm>
0.324656

>  <SCORE.RESTR>
5.87748

>  <SCORE.RESTR.CAVITY>
5.87748

>  <SCORE.RESTR.norm>
0.13994

>  <SCORE.SYSTEM>
0

>  <SCORE.SYSTEM.CONST>
0

>  <SCORE.SYSTEM.DIHEDRAL>
0

>  <SCORE.SYSTEM.SOLV>
0

>  <SCORE.SYSTEM.norm>
0

>  <SCORE.heavy>
42

>  <SCORE.norm>
0.459026

>  <RMSD>
11.414

$$$$
3c44_lig
 OpenBabel11021811463D
libRbt.so/2013.1/901 2013/11/27
 42 45  0  0  0  0  0  0  0  0999 V2000
   35.5153   42.9103   -3.7342 C   0  0  2  0  0  0  0  0  0  0  0  0
   36.5814   42.3059   -2.9858 O   0  0  0  0  0  0  0  0  0  0  0  0
   38.0885   38.4902   -2.3872 C   0  0  2  0  0  0  0  0  0  0  0  0
   38.4181   37.0734   -2.1684 N   0  0  0  0  0  0  0  0  0  0  0  0
   37.2738   40.7577   -6.3773 C   0  0  1  0  0  0  0  0  0  0  0  0
   38.3325   43.4379   -9.3462 C   0  0  1  0  0  0  0  0  0  0  0  0
   35.7468   44.4235   -3.8029 C   0  0  2  0  0  0  0  0  0  0  0  0
   37.0800   44.7256   -4.3434 N   0  0  0  0  0  0  0  0  0  0  0  0
   37.1588   39.0045   -1.2842 C   0  0  0  0  0  0  0  0  0  0  0  0
   37.5409   42.2620   -6.3070 C   0  0  2  0  0  0  0  0  0  0  0  0
   36.4352   42.9804   -6.8575 O   0  0  0  0  0  0  0  0  0  0  0  0
   39.5873   43.4797  -10.2246 C   0  0  2  0  0  0  0  0  0  0  0  0
   40.7560   43.2208   -9.3724 N   0  0  0  0  0  0  0  0  0  0  0  0
   35.6086   45.0710   -2.4228 C   0  0  1  0  0  0  0  0  0  0  0  0
   35.6746   46.4936   -2.5610 O   0  0  0  0  0  0  0  0  0  0  0  0
   36.9851   40.5135   -1.4866 C   0  0  2  0  0  0  0  0  0  0  0  0
   36.0475   41.0344   -0.4804 N   0  0  0  0  0  0  0  0  0  0  0  0
   38.7207   42.3589   -7.2721 C   0  0  2  0  0  0  0  0  0  0  0  0
   38.2848   42.1907   -8.6311 O   0  0  0  0  0  0  0  0  0  0  0  0
   39.7526   44.8527  -10.8891 C   0  0  1  0  0  0  0  0  0  0  0  0
   38.7569   45.0421  -11.8979 O   0  0  0  0  0  0  0  0  0  0  0  0
   34.2682   44.6799   -1.7977 C   0  0  2  0  0  0  0  0  0  0  0  0
   34.1903   45.1955   -0.4662 O   0  0  0  0  0  0  0  0  0  0  0  0
   36.4645   40.8760   -2.8830 C   0  0  2  0  0  0  0  0  0  0  0  0
   39.5297   41.1448   -6.8436 C   0  0  2  0  0  0  0  0  0  0  0  0
   38.5887   40.1729   -6.3384 O   0  0  0  0  0  0  0  0  0  0  0  0
   39.6312   45.9789   -9.8612 C   0  0  2  0  0  0  0  0  0  0  0  0
   40.7556   45.9224   -8.9788 O   0  0  0  0  0  0  0  0  0  0  0  0
   34.1425   43.1559   -1.7680 C   0  0  2  0  0  0  0  0  0  0  0  0
   34.2544   42.6216   -3.1019 O   0  0  0  0  0  0  0  0  0  0  0  0
   37.2116   40.1945   -4.0275 C   0  0  2  0  0  0  0  0  0  0  0  0
   36.4730   40.3680   -5.2478 O   0  0  0  0  0  0  0  0  0  0  0  0
   40.5306   41.5552   -5.7613 C   0  0  0  0  0  0  0  0  0  0  0  0
   41.3495   42.6153   -6.2598 O   0  0  0  0  0  0  0  0  0  0  0  0
   38.3277   45.8002   -9.0785 C   0  0  1  0  0  0  0  0  0  0  0  0
   38.3695   44.5270   -8.4102 O   0  0  0  0  0  0  0  0  0  0  0  0
   32.7705   42.8145   -1.1810 C   0  0  0  0  0  0  0  0  0  0  0  0
   31.7073   43.2423   -2.1016 O   0  0  0  0  0  0  0  0  0  0  0  0
   37.4073   38.7008   -3.7418 C   0  0  1  0  0  0  0  0  0  0  0  0
   38.1847   38.1019   -4.7811 O   0  0  0  0  0  0  0  0  0  0  0  0
   38.1201   46.9034   -8.0401 C   0  0  0  0  0  0  0  0  0  0  0  0
   38.1761   48.2119   -8.7066 N   0  0  0  0  0  0  0  0  0  0  0  0
  1  2  1  1  0  0  0
  1  7  1  0  0  0  0
  1 30  1  0  0  0  0
  3  4  1  1  0  0  0
  3  9  1  0  0  0  0
  3 39  1  0  0  0  0
  5 10  1  0  0  0  0
  5 26  1  0  0  0  0
  5 32  1  1  0  0  0
  6 12  1  0  0  0  0
  6 36  1  0  0  0  0
  6 19  1  1  0  0  0
  7  8  1  1  0  0  0
  7 14  1  0  0  0  0
  9 16  1  0  0  0  0
 10 11  1  6  0  0  0
 10 18  1  0  0  0  0
 12 13  1  1  0  0  0
 12 20  1  0  0  0  0
 14 15  1  6  0  0  0
 14 22  1  0  0  0  0
 16 17  1  1  0  0  0
 16 24  1  0  0  0  0
 18 19  1  6  0  0  0
 18 25  1  0  0  0  0
 20 21  1  6  0  0  0
 20 27  1  0  0  0  0
 22 23  1  1  0  0  0
 22 29  1  0  0  0  0
 24  2  1  6  0  0  0
 24 31  1  0  0  0  0
 25 26  1  0  0  0  0
 25 33  1  1  0  0  0
 27 28  1  1  0  0  0
 27 35  1  0  0  0  0
 29 30  1  0  0  0  0
 29 37  1  6  0  0  0
 31 32  1  6  0  0  0
 31 39  1  0  0  0  0
 33 34  1  0  0  0  0
 35 36  1  0  0  0  0
 35 41  1  1  0  0  0
 37 38  1  0  0  0  0
 39 40  1  6  0  0  0
 41 42  1  0  0  0  0
M  END
>  <CHROM.1>
-179.07157762,-80.26471561,101.16112857,107.82941789,-144.36461644,-56.28438725
67.20525844,134.57569001,55.66675382,37.34048945,42.76407709,-5.34640428
2.32478219,-0.87337085,2.57638137

>  <Name>
3c44_lig

>  <RI>
0

>  <Rbt.Current_Directory>
/home/itssahil/PROJECTS/Mol_Feturizer/New_Systems/rnas/3c44

>  <Rbt.Executable>
rbdock ($Id: //depot/dev/client3/rdock/2013.1/src/exe/rbdock.cxx#4 $)

>  <Rbt.Library>
libRbt.so (2013.1, Build901 2013/11/27)

>  <Rbt.Parameter_File>
/export/apps/rDock/src/rDock_2013.1_src/data/scripts/dock_solv.prm

>  <Rbt.Receptor>
prm/blind_docking_100.prm

>  <SCORE>
17.4559

>  <SCORE.INTER>
2.93665

>  <SCORE.INTER.CONST>
1

>  <SCORE.INTER.POLAR>
-0.109459

>  <SCORE.INTER.ROT>
9

>  <SCORE.INTER.SOLV>
20.9331

>  <SCORE.INTER.VDW>
-14.2551

>  <SCORE.INTER.norm>
0.0699203

>  <SCORE.INTRA>
8.67034

>  <SCORE.INTRA.DIHEDRAL>
10.0038

>  <SCORE.INTRA.DIHEDRAL.0>
14.8538

>  <SCORE.INTRA.POLAR>
0

>  <SCORE.INTRA.POLAR.0>
0

>  <SCORE.INTRA.REPUL>
0.0581844

>  <SCORE.INTRA.REPUL.0>
0

>  <SCORE.INTRA.SOLV>
2.60565

>  <SCORE.INTRA.SOLV.lig_0>
-100.951

>  <SCORE.INTRA.VDW>
2.0747

>  <SCORE.INTRA.VDW.0>
-5.71388

>  <SCORE.INTRA.norm>
0.206437

>  <SCORE.RESTR>
5.84887

>  <SCORE.RESTR.CAVITY>
5.84887

>  <SCORE.RESTR.norm>
0.139259

>  <SCORE.SYSTEM>
0

>  <SCORE.SYSTEM.CONST>
0

>  <SCORE.SYSTEM.DIHEDRAL>
0

>  <SCORE.SYSTEM.SOLV>
0

>  <SCORE.SYSTEM.norm>
0

>  <SCORE.heavy>
42

>  <SCORE.norm>
0.415616

>  <RMSD>
11.420

$$$$
3c44_lig
 OpenBabel11021811463D
libRbt.so/2013.1/901 2013/11/27
 42 45  0  0  0  0  0  0  0  0999 V2000
   36.2301   42.8108   -2.9378 C   0  0  2  0  0  0  0  0  0  0  0  0
   35.3243   42.3472   -3.9509 O   0  0  0  0  0  0  0  0  0  0  0  0
   35.7644   38.4771   -5.3716 C   0  0  2  0  0  0  0  0  0  0  0  0
   36.0364   37.1919   -6.0335 N   0  0  0  0  0  0  0  0  0  0  0  0
   38.7581   41.5002   -4.6779 C   0  0  1  0  0  0  0  0  0  0  0  0
   38.6199   43.6948   -7.7235 C   0  0  1  0  0  0  0  0  0  0  0  0
   35.8801   42.1373   -1.6067 C   0  0  2  0  0  0  0  0  0  0  0  0
   35.8657   40.6741   -1.7478 N   0  0  0  0  0  0  0  0  0  0  0  0
   35.1132   39.4602   -6.3486 C   0  0  0  0  0  0  0  0  0  0  0  0
   38.5158   43.0032   -4.8240 C   0  0  2  0  0  0  0  0  0  0  0  0
   37.3391   43.2348   -5.6009 O   0  0  0  0  0  0  0  0  0  0  0  0
   38.8462   43.5487   -9.2319 C   0  0  2  0  0  0  0  0  0  0  0  0
   40.2408   43.9059   -9.5260 N   0  0  0  0  0  0  0  0  0  0  0  0
   34.5170   42.6029   -1.0887 C   0  0  1  0  0  0  0  0  0  0  0  0
   34.3059   42.0735    0.2237 O   0  0  0  0  0  0  0  0  0  0  0  0
   34.7180   40.7115   -5.5573 C   0  0  2  0  0  0  0  0  0  0  0  0
   34.1432   41.7063   -6.4755 N   0  0  0  0  0  0  0  0  0  0  0  0
   39.7385   43.3807   -5.6579 C   0  0  2  0  0  0  0  0  0  0  0  0
   39.5978   42.9171   -7.0108 O   0  0  0  0  0  0  0  0  0  0  0  0
   37.9185   44.4794  -10.0237 C   0  0  1  0  0  0  0  0  0  0  0  0
   36.5664   44.0202   -9.9466 O   0  0  0  0  0  0  0  0  0  0  0  0
   34.4761   44.1312   -1.0361 C   0  0  2  0  0  0  0  0  0  0  0  0
   33.1668   44.5640   -0.6574 O   0  0  0  0  0  0  0  0  0  0  0  0
   35.8978   41.3486   -4.8127 C   0  0  2  0  0  0  0  0  0  0  0  0
   40.8155   42.5717   -4.9525 C   0  0  2  0  0  0  0  0  0  0  0  0
   40.1677   41.4045   -4.4017 O   0  0  0  0  0  0  0  0  0  0  0  0
   37.9834   45.9092   -9.4842 C   0  0  2  0  0  0  0  0  0  0  0  0
   39.2783   46.4497   -9.7622 O   0  0  0  0  0  0  0  0  0  0  0  0
   34.8291   44.7004   -2.4111 C   0  0  2  0  0  0  0  0  0  0  0  0
   36.1334   44.2424   -2.8189 O   0  0  0  0  0  0  0  0  0  0  0  0
   36.7358   40.3609   -4.0034 C   0  0  2  0  0  0  0  0  0  0  0  0
   37.9575   40.9971   -3.5941 O   0  0  0  0  0  0  0  0  0  0  0  0
   41.4501   43.4206   -3.8488 C   0  0  0  0  0  0  0  0  0  0  0  0
   41.8453   44.6802   -4.3967 O   0  0  0  0  0  0  0  0  0  0  0  0
   37.7273   45.8839   -7.9750 C   0  0  1  0  0  0  0  0  0  0  0  0
   38.7443   45.0776   -7.3547 O   0  0  0  0  0  0  0  0  0  0  0  0
   34.8224   46.2270   -2.2973 C   0  0  0  0  0  0  0  0  0  0  0  0
   33.4871   46.6976   -1.9017 O   0  0  0  0  0  0  0  0  0  0  0  0
   37.0492   39.1053   -4.8257 C   0  0  1  0  0  0  0  0  0  0  0  0
   37.7562   38.1582   -4.0218 O   0  0  0  0  0  0  0  0  0  0  0  0
   37.7544   47.2836   -7.3597 C   0  0  0  0  0  0  0  0  0  0  0  0
   37.6005   47.1745   -5.9024 N   0  0  0  0  0  0  0  0  0  0  0  0
  1  2  1  6  0  0  0
  1  7  1  0  0  0  0
  1 30  1  0  0  0  0
  3  4  1  6  0  0  0
  3  9  1  0  0  0  0
  3 39  1  0  0  0  0
  5 10  1  0  0  0  0
  5 26  1  0  0  0  0
  5 32  1  1  0  0  0
  6 12  1  0  0  0  0
  6 36  1  0  0  0  0
  6 19  1  1  0  0  0
  7  8  1  6  0  0  0
  7 14  1  0  0  0  0
  9 16  1  0  0  0  0
 10 11  1  6  0  0  0
 10 18  1  0  0  0  0
 12 13  1  1  0  0  0
 12 20  1  0  0  0  0
 14 15  1  1  0  0  0
 14 22  1  0  0  0  0
 16 17  1  6  0  0  0
 16 24  1  0  0  0  0
 18 19  1  6  0  0  0
 18 25  1  0  0  0  0
 20 21  1  1  0  0  0
 20 27  1  0  0  0  0
 22 23  1  6  0  0  0
 22 29  1  0  0  0  0
 24  2  1  1  0  0  0
 24 31  1  0  0  0  0
 25 26  1  0  0  0  0
 25 33  1  1  0  0  0
 27 28  1  1  0  0  0
 27 35  1  0  0  0  0
 29 30  1  0  0  0  0
 29 37  1  1  0  0  0
 31 32  1  6  0  0  0
 31 39  1  0  0  0  0
 33 34  1  0  0  0  0
 35 36  1  0  0  0  0
 35 41  1  1  0  0  0
 37 38  1  0  0  0  0
 39 40  1  1  0  0  0
 41 42  1  0  0  0  0
M  END
>  <CHROM.1>
-101.77754095,99.21324529,159.33126706,72.12735443,165.13852777,-51.07370534
-60.81323280,-57.86608349,-175.88597212,37.14297253,42.98670864,-5.04750092
2.71035084,-0.96809291,3.02416557

>  <Name>
3c44_lig

>  <RI>
0

>  <Rbt.Current_Directory>
/home/itssahil/PROJECTS/Mol_Feturizer/New_Systems/rnas/3c44

>  <Rbt.Executable>
rbdock ($Id: //depot/dev/client3/rdock/2013.1/src/exe/rbdock.cxx#4 $)

>  <Rbt.Library>
libRbt.so (2013.1, Build901 2013/11/27)

>  <Rbt.Parameter_File>
/export/apps/rDock/src/rDock_2013.1_src/data/scripts/dock_solv.prm

>  <Rbt.Receptor>
prm/blind_docking_80.prm

>  <SCORE>
34.7824

>  <SCORE.INTER>
15.0944

>  <SCORE.INTER.CONST>
1

>  <SCORE.INTER.POLAR>
-0.342335

>  <SCORE.INTER.ROT>
9

>  <SCORE.INTER.SOLV>
32.5997

>  <SCORE.INTER.VDW>
-9.26252

>  <SCORE.INTER.norm>
0.35939

>  <SCORE.INTRA>
14.6697

>  <SCORE.INTRA.DIHEDRAL>
0.384292

>  <SCORE.INTRA.DIHEDRAL.0>
14.8538

>  <SCORE.INTRA.POLAR>
0

>  <SCORE.INTRA.POLAR.0>
0

>  <SCORE.INTRA.REPUL>
0

>  <SCORE.INTRA.REPUL.0>
0

>  <SCORE.INTRA.SOLV>
1.00847

>  <SCORE.INTRA.SOLV.lig_0>
-100.951

>  <SCORE.INTRA.VDW>
13.9733

>  <SCORE.INTRA.VDW.0>
-5.71388

>  <SCORE.INTRA.norm>
0.349279

>  <SCORE.RESTR>
5.01824

>  <SCORE.RESTR.CAVITY>
5.01824

>  <SCORE.RESTR.norm>
0.119482

>  <SCORE.SYSTEM>
0

>  <SCORE.SYSTEM.CONST>
0

>  <SCORE.SYSTEM.DIHEDRAL>
0

>  <SCORE.SYSTEM.SOLV>
0

>  <SCORE.SYSTEM.norm>
0

>  <SCORE.heavy>
42

>  <SCORE.norm>
0.828151

>  <RMSD>
11.447

$$$$
3c44_lig
 OpenBabel11021811463D
libRbt.so/2013.1/901 2013/11/27
 42 45  0  0  0  0  0  0  0  0999 V2000
   40.3290   40.0781   -5.1328 C   0  0  2  0  0  0  0  0  0  0  0  0
   38.9250   40.1649   -5.4212 O   0  0  0  0  0  0  0  0  0  0  0  0
   37.5620   38.4399   -8.9363 C   0  0  2  0  0  0  0  0  0  0  0  0
   37.0973   37.6405  -10.0804 N   0  0  0  0  0  0  0  0  0  0  0  0
   35.8574   40.3508   -4.7741 C   0  0  1  0  0  0  0  0  0  0  0  0
   35.6491   43.5610   -2.0388 C   0  0  1  0  0  0  0  0  0  0  0  0
   40.5611   40.4371   -3.6613 C   0  0  2  0  0  0  0  0  0  0  0  0
   39.7342   39.5992   -2.7809 N   0  0  0  0  0  0  0  0  0  0  0  0
   38.9358   37.9566   -8.4628 C   0  0  0  0  0  0  0  0  0  0  0  0
   37.0470   40.6610   -3.8643 C   0  0  2  0  0  0  0  0  0  0  0  0
   36.9405   39.9152   -2.6501 O   0  0  0  0  0  0  0  0  0  0  0  0
   34.5088   43.6355   -1.0181 C   0  0  2  0  0  0  0  0  0  0  0  0
   33.2550   43.2867   -1.7004 N   0  0  0  0  0  0  0  0  0  0  0  0
   40.2446   41.9101   -3.3910 C   0  0  1  0  0  0  0  0  0  0  0  0
   40.6253   42.2356   -2.0507 O   0  0  0  0  0  0  0  0  0  0  0  0
   39.4236   38.9254   -7.3805 C   0  0  2  0  0  0  0  0  0  0  0  0
   40.7161   38.4585   -6.8564 N   0  0  0  0  0  0  0  0  0  0  0  0
   36.7649   42.1319   -3.5649 C   0  0  2  0  0  0  0  0  0  0  0  0
   35.6517   42.2666   -2.6663 O   0  0  0  0  0  0  0  0  0  0  0  0
   34.3792   45.0487   -0.4348 C   0  0  1  0  0  0  0  0  0  0  0  0
   35.4823   45.3355    0.4287 O   0  0  0  0  0  0  0  0  0  0  0  0
   41.0170   42.7953   -4.3709 C   0  0  2  0  0  0  0  0  0  0  0  0
   40.6352   44.1612   -4.1880 O   0  0  0  0  0  0  0  0  0  0  0  0
   38.4384   39.0675   -6.2135 C   0  0  2  0  0  0  0  0  0  0  0  0
   36.3654   42.6243   -4.9470 C   0  0  2  0  0  0  0  0  0  0  0  0
   35.7748   41.5010   -5.6360 O   0  0  0  0  0  0  0  0  0  0  0  0
   34.3380   46.0999   -1.5452 C   0  0  2  0  0  0  0  0  0  0  0  0
   33.1178   45.9517   -2.2769 O   0  0  0  0  0  0  0  0  0  0  0  0
   40.7083   42.3618   -5.8049 C   0  0  2  0  0  0  0  0  0  0  0  0
   41.0570   40.9759   -5.9913 O   0  0  0  0  0  0  0  0  0  0  0  0
   36.9928   39.3149   -6.6396 C   0  0  2  0  0  0  0  0  0  0  0  0
   36.1266   39.1424   -5.5062 O   0  0  0  0  0  0  0  0  0  0  0  0
   37.6056   43.1320   -5.6856 C   0  0  0  0  0  0  0  0  0  0  0  0
   38.0655   44.3309   -5.0577 O   0  0  0  0  0  0  0  0  0  0  0  0
   35.5428   45.8970   -2.4678 C   0  0  1  0  0  0  0  0  0  0  0  0
   35.4631   44.5779   -3.0362 O   0  0  0  0  0  0  0  0  0  0  0  0
   41.5376   43.2410   -6.7443 C   0  0  0  0  0  0  0  0  0  0  0  0
   41.2372   42.9071   -8.1441 O   0  0  0  0  0  0  0  0  0  0  0  0
   36.5811   38.3571   -7.7640 C   0  0  1  0  0  0  0  0  0  0  0  0
   35.2577   38.6644   -8.2079 O   0  0  0  0  0  0  0  0  0  0  0  0
   35.5867   46.9266   -3.5975 C   0  0  0  0  0  0  0  0  0  0  0  0
   35.7270   48.2712   -3.0215 N   0  0  0  0  0  0  0  0  0  0  0  0
  1  2  1  6  0  0  0
  1  7  1  0  0  0  0
  1 30  1  0  0  0  0
  3  4  1  6  0  0  0
  3  9  1  0  0  0  0
  3 39  1  0  0  0  0
  5 10  1  0  0  0  0
  5 26  1  0  0  0  0
  5 32  1  6  0  0  0
  6 12  1  0  0  0  0
  6 36  1  0  0  0  0
  6 19  1  6  0  0  0
  7  8  1  1  0  0  0
  7 14  1  0  0  0  0
  9 16  1  0  0  0  0
 10 11  1  1  0  0  0
 10 18  1  0  0  0  0
 12 13  1  6  0  0  0
 12 20  1  0  0  0  0
 14 15  1  1  0  0  0
 14 22  1  0  0  0  0
 16 17  1  1  0  0  0
 16 24  1  0  0  0  0
 18 19  1  1  0  0  0
 18 25  1  0  0  0  0
 20 21  1  1  0  0  0
 20 27  1  0  0  0  0
 22 23  1  6  0  0  0
 22 29  1  0  0  0  0
 24  2  1  1  0  0  0
 24 31  1  0  0  0  0
 25 26  1  0  0  0  0
 25 33  1  6  0  0  0
 27 28  1  6  0  0  0
 27 35  1  0  0  0  0
 29 30  1  0  0  0  0
 29 37  1  6  0  0  0
 31 32  1  1  0  0  0
 31 39  1  0  0  0  0
 33 34  1  0  0  0  0
 35 36  1  0  0  0  0
 35 41  1  6  0  0  0
 37 38  1  0  0  0  0
 39 40  1  6  0  0  0
 41 42  1  0  0  0  0
M  END
>  <CHROM.1>
-136.50559080,-79.31789794,-176.11561911,160.99076570,-48.24810453,-68.87055833
-177.57308870,92.29093617,62.24647090,37.54203126,41.98539251,-4.59453284
-1.10979207,0.14944365,0.65746101

>  <Name>
3c44_lig

>  <RI>
224

>  <Rbt.Current_Directory>
/home/itssahil/PROJECTS/Mol_Feturizer/New_Systems/rnas/3c44

>  <Rbt.Executable>
rbdock ($Id: //depot/dev/client3/rdock/2013.1/src/exe/rbdock.cxx#4 $)

>  <Rbt.Library>
libRbt.so (2013.1, Build901 2013/11/27)

>  <Rbt.Parameter_File>
/export/apps/rDock/src/rDock_2013.1_src/data/scripts/dock_solv.prm

>  <Rbt.Receptor>
prm/blind_docking_60.prm

>  <SCORE>
7.9555

>  <SCORE.INTER>
-8.04953

>  <SCORE.INTER.CONST>
1

>  <SCORE.INTER.POLAR>
-2.04966

>  <SCORE.INTER.ROT>
9

>  <SCORE.INTER.SOLV>
25.0489

>  <SCORE.INTER.VDW>
-16.4838

>  <SCORE.INTER.norm>
-0.191656

>  <SCORE.INTRA>
7.97046

>  <SCORE.INTRA.DIHEDRAL>
-0.213203

>  <SCORE.INTRA.DIHEDRAL.0>
14.8538

>  <SCORE.INTRA.POLAR>
0

>  <SCORE.INTRA.POLAR.0>
0

>  <SCORE.INTRA.REPUL>
0

>  <SCORE.INTRA.REPUL.0>
0

>  <SCORE.INTRA.SOLV>
2.11596

>  <SCORE.INTRA.SOLV.lig_0>
-100.951

>  <SCORE.INTRA.VDW>
7.01908

>  <SCORE.INTRA.VDW.0>
-5.71388

>  <SCORE.INTRA.norm>
0.189773

>  <SCORE.RESTR>
8.03457

>  <SCORE.RESTR.CAVITY>
8.03457

>  <SCORE.RESTR.norm>
0.191299

>  <SCORE.SYSTEM>
0

>  <SCORE.SYSTEM.CONST>
0

>  <SCORE.SYSTEM.DIHEDRAL>
0

>  <SCORE.SYSTEM.SOLV>
0

>  <SCORE.SYSTEM.norm>
0

>  <SCORE.heavy>
42

>  <SCORE.norm>
0.189417

>  <RMSD>
11.500

$$$$
3c44_lig
 OpenBabel11021811463D
libRbt.so/2013.1/901 2013/11/27
 42 45  0  0  0  0  0  0  0  0999 V2000
   38.3692   41.3420   -6.1455 C   0  0  2  0  0  0  0  0  0  0  0  0
   38.4978   41.3460   -7.5757 O   0  0  0  0  0  0  0  0  0  0  0  0
   38.9374   44.3208  -10.4300 C   0  0  2  0  0  0  0  0  0  0  0  0
   38.9169   45.4631  -11.3566 N   0  0  0  0  0  0  0  0  0  0  0  0
   38.2515   44.2755   -6.0392 C   0  0  1  0  0  0  0  0  0  0  0  0
   35.3383   44.6338   -2.9495 C   0  0  1  0  0  0  0  0  0  0  0  0
   39.1163   40.1301   -5.5789 C   0  0  2  0  0  0  0  0  0  0  0  0
   40.5132   40.1147   -6.0367 N   0  0  0  0  0  0  0  0  0  0  0  0
   37.6062   43.5651  -10.4755 C   0  0  0  0  0  0  0  0  0  0  0  0
   38.5280   44.6984   -4.5957 C   0  0  2  0  0  0  0  0  0  0  0  0
   38.7069   43.5430   -3.7742 O   0  0  0  0  0  0  0  0  0  0  0  0
   36.1606   44.4885   -1.6648 C   0  0  2  0  0  0  0  0  0  0  0  0
   36.7640   43.1488   -1.6522 N   0  0  0  0  0  0  0  0  0  0  0  0
   38.4417   38.8186   -5.9889 C   0  0  1  0  0  0  0  0  0  0  0  0
   39.0762   37.7302   -5.3106 O   0  0  0  0  0  0  0  0  0  0  0  0
   37.7534   42.3083   -9.6112 C   0  0  2  0  0  0  0  0  0  0  0  0
   36.4725   41.5863   -9.5806 N   0  0  0  0  0  0  0  0  0  0  0  0
   37.1854   45.3418   -4.2547 C   0  0  2  0  0  0  0  0  0  0  0  0
   36.1666   44.3420   -4.0887 O   0  0  0  0  0  0  0  0  0  0  0  0
   35.2765   44.6458   -0.4207 C   0  0  1  0  0  0  0  0  0  0  0  0
   34.8571   46.0051   -0.2750 O   0  0  0  0  0  0  0  0  0  0  0  0
   36.9587   38.8588   -5.6153 C   0  0  2  0  0  0  0  0  0  0  0  0
   36.3096   37.6795   -6.0979 O   0  0  0  0  0  0  0  0  0  0  0  0
   38.1824   42.6167   -8.1713 C   0  0  2  0  0  0  0  0  0  0  0  0
   36.9234   46.1283   -5.5294 C   0  0  2  0  0  0  0  0  0  0  0  0
   37.5657   45.4084   -6.6039 O   0  0  0  0  0  0  0  0  0  0  0  0
   34.0359   43.7558   -0.5120 C   0  0  2  0  0  0  0  0  0  0  0  0
   34.4427   42.3866   -0.4341 O   0  0  0  0  0  0  0  0  0  0  0  0
   36.3077   40.0957   -6.2363 C   0  0  2  0  0  0  0  0  0  0  0  0
   36.9765   41.2895   -5.7839 O   0  0  0  0  0  0  0  0  0  0  0  0
   39.3714   43.5690   -8.0613 C   0  0  2  0  0  0  0  0  0  0  0  0
   39.5012   44.0128   -6.7009 O   0  0  0  0  0  0  0  0  0  0  0  0
   37.5035   47.5371   -5.3876 C   0  0  0  0  0  0  0  0  0  0  0  0
   36.8332   48.2135   -4.3217 O   0  0  0  0  0  0  0  0  0  0  0  0
   33.3248   44.0277   -1.8402 C   0  0  1  0  0  0  0  0  0  0  0  0
   34.2318   43.7185   -2.9131 O   0  0  0  0  0  0  0  0  0  0  0  0
   34.8415   40.1187   -5.7968 C   0  0  0  0  0  0  0  0  0  0  0  0
   34.2025   41.3673   -6.2368 O   0  0  0  0  0  0  0  0  0  0  0  0
   39.1954   44.7753   -8.9912 C   0  0  1  0  0  0  0  0  0  0  0  0
   40.3572   45.6063   -8.9393 O   0  0  0  0  0  0  0  0  0  0  0  0
   32.0564   43.1886   -2.0001 C   0  0  0  0  0  0  0  0  0  0  0  0
   31.1876   43.3979   -0.8335 N   0  0  0  0  0  0  0  0  0  0  0  0
  1  2  1  6  0  0  0
  1  7  1  0  0  0  0
  1 30  1  0  0  0  0
  3  4  1  6  0  0  0
  3  9  1  0  0  0  0
  3 39  1  0  0  0  0
  5 10  1  0  0  0  0
  5 26  1  0  0  0  0
  5 32  1  6  0  0  0
  6 12  1  0  0  0  0
  6 36  1  0  0  0  0
  6 19  1  6  0  0  0
  7  8  1  6  0  0  0
  7 14  1  0  0  0  0
  9 16  1  0  0  0  0
 10 11  1  1  0  0  0
 10 18  1  0  0  0  0
 12 13  1  1  0  0  0
 12 20  1  0  0  0  0
 14 15  1  1  0  0  0
 14 22  1  0  0  0  0
 16 17  1  1  0  0  0
 16 24  1  0  0  0  0
 18 19  1  6  0  0  0
 18 25  1  0  0  0  0
 20 21  1  6  0  0  0
 20 27  1  0  0  0  0
 22 23  1  6  0  0  0
 22 29  1  0  0  0  0
 24  2  1  6  0  0  0
 24 31  1  0  0  0  0
 25 26  1  0  0  0  0
 25 33  1  1  0  0  0
 27 28  1  6  0  0  0
 27 35  1  0  0  0  0
 29 30  1  0  0  0  0
 29 37  1  1  0  0  0
 31 32  1  1  0  0  0
 31 39  1  0  0  0  0
 33 34  1  0  0  0  0
 35 36  1  0  0  0  0
 35 41  1  6  0  0  0
 37 38  1  0  0  0  0
 39 40  1  6  0  0  0
 41 42  1  0  0  0  0
M  END
>  <CHROM.1>
-162.85892604,178.37551087,-67.38812346,137.27395367,-155.10315381,-62.70925975
173.54964139,-39.14275281,54.02327981,36.92659135,43.08361258,-5.33156391
0.25755978,-1.00027553,-3.03748778

>  <Name>
3c44_lig

>  <RI>
0

>  <Rbt.Current_Directory>
/home/itssahil/PROJECTS/Mol_Feturizer/New_Systems/rnas/3c44

>  <Rbt.Executable>
rbdock ($Id: //depot/dev/client3/rdock/2013.1/src/exe/rbdock.cxx#4 $)

>  <Rbt.Library>
libRbt.so (2013.1, Build901 2013/11/27)

>  <Rbt.Parameter_File>
/export/apps/rDock/src/rDock_2013.1_src/data/scripts/dock_solv.prm

>  <Rbt.Receptor>
prm/blind_docking_80.prm

>  <SCORE>
-1.55459

>  <SCORE.INTER>
-12.6387

>  <SCORE.INTER.CONST>
1

>  <SCORE.INTER.POLAR>
-1.59935

>  <SCORE.INTER.ROT>
9

>  <SCORE.INTER.SOLV>
24.7922

>  <SCORE.INTER.VDW>
-20.9587

>  <SCORE.INTER.norm>
-0.300922

>  <SCORE.INTRA>
5.39288

>  <SCORE.INTRA.DIHEDRAL>
-2.5588

>  <SCORE.INTRA.DIHEDRAL.0>
14.8538

>  <SCORE.INTRA.POLAR>
0

>  <SCORE.INTRA.POLAR.0>
0

>  <SCORE.INTRA.REPUL>
0.959678

>  <SCORE.INTRA.REPUL.0>
0

>  <SCORE.INTRA.SOLV>
-1.4867

>  <SCORE.INTRA.SOLV.lig_0>
-100.951

>  <SCORE.INTRA.VDW>
2.61724

>  <SCORE.INTRA.VDW.0>
-5.71388

>  <SCORE.INTRA.norm>
0.128402

>  <SCORE.RESTR>
5.69124

>  <SCORE.RESTR.CAVITY>
5.69124

>  <SCORE.RESTR.norm>
0.135506

>  <SCORE.SYSTEM>
0

>  <SCORE.SYSTEM.CONST>
0

>  <SCORE.SYSTEM.DIHEDRAL>
0

>  <SCORE.SYSTEM.SOLV>
0

>  <SCORE.SYSTEM.norm>
0

>  <SCORE.heavy>
42

>  <SCORE.norm>
-0.0370141

>  <RMSD>
11.519

$$$$
3c44_lig
 OpenBabel11021811463D
libRbt.so/2013.1/901 2013/11/27
 42 45  0  0  0  0  0  0  0  0999 V2000
   36.9383   40.6012   -1.3056 C   0  0  2  0  0  0  0  0  0  0  0  0
   36.4461   39.9709   -2.4982 O   0  0  0  0  0  0  0  0  0  0  0  0
   39.9982   38.7006   -4.2182 C   0  0  2  0  0  0  0  0  0  0  0  0
   41.1844   38.3387   -5.0093 N   0  0  0  0  0  0  0  0  0  0  0  0
   38.2289   42.5984   -4.3491 C   0  0  1  0  0  0  0  0  0  0  0  0
   38.0778   43.7844   -7.4907 C   0  0  1  0  0  0  0  0  0  0  0  0
   36.1188   40.1133   -0.1064 C   0  0  2  0  0  0  0  0  0  0  0  0
   36.1228   38.6451   -0.0316 N   0  0  0  0  0  0  0  0  0  0  0  0
   38.7253   38.1603   -4.8762 C   0  0  0  0  0  0  0  0  0  0  0  0
   36.7214   42.8451   -4.4236 C   0  0  2  0  0  0  0  0  0  0  0  0
   36.0504   41.6500   -4.8277 O   0  0  0  0  0  0  0  0  0  0  0  0
   37.9245   43.6336   -9.0077 C   0  0  2  0  0  0  0  0  0  0  0  0
   37.7157   42.2111   -9.3113 N   0  0  0  0  0  0  0  0  0  0  0  0
   34.6715   40.6058   -0.1837 C   0  0  1  0  0  0  0  0  0  0  0  0
   33.9915   40.2620    1.0274 O   0  0  0  0  0  0  0  0  0  0  0  0
   37.5555   38.4363   -3.9257 C   0  0  2  0  0  0  0  0  0  0  0  0
   36.3033   37.9854   -4.5517 N   0  0  0  0  0  0  0  0  0  0  0  0
   36.6815   43.8460   -5.5767 C   0  0  2  0  0  0  0  0  0  0  0  0
   36.9451   43.1934   -6.8297 O   0  0  0  0  0  0  0  0  0  0  0  0
   39.1815   44.1179   -9.7422 C   0  0  1  0  0  0  0  0  0  0  0  0
   39.2899   45.5415   -9.6606 O   0  0  0  0  0  0  0  0  0  0  0  0
   34.6491   42.1241   -0.3692 C   0  0  2  0  0  0  0  0  0  0  0  0
   33.3012   42.5660   -0.5511 O   0  0  0  0  0  0  0  0  0  0  0  0
   37.4186   39.9187   -3.5566 C   0  0  2  0  0  0  0  0  0  0  0  0
   37.8574   44.7377   -5.2104 C   0  0  2  0  0  0  0  0  0  0  0  0
   38.7997   43.9123   -4.4921 O   0  0  0  0  0  0  0  0  0  0  0  0
   40.4429   43.4938   -9.1431 C   0  0  2  0  0  0  0  0  0  0  0  0
   40.4409   42.0906   -9.4209 O   0  0  0  0  0  0  0  0  0  0  0  0
   35.4848   42.5027   -1.5929 C   0  0  2  0  0  0  0  0  0  0  0  0
   36.8378   42.0316   -1.4361 O   0  0  0  0  0  0  0  0  0  0  0  0
   38.7238   40.5787   -3.1169 C   0  0  2  0  0  0  0  0  0  0  0  0
   38.5468   42.0042   -3.0784 O   0  0  0  0  0  0  0  0  0  0  0  0
   37.3666   45.8967   -4.3402 C   0  0  0  0  0  0  0  0  0  0  0  0
   38.0380   47.0950   -4.7356 O   0  0  0  0  0  0  0  0  0  0  0  0
   40.4506   43.7398   -7.6321 C   0  0  1  0  0  0  0  0  0  0  0  0
   39.2805   43.1241   -7.0652 O   0  0  0  0  0  0  0  0  0  0  0  0
   35.4723   44.0291   -1.7094 C   0  0  0  0  0  0  0  0  0  0  0  0
   36.1889   44.6276   -0.5740 O   0  0  0  0  0  0  0  0  0  0  0  0
   39.8688   40.2188   -4.0711 C   0  0  1  0  0  0  0  0  0  0  0  0
   41.0966   40.7725   -3.5924 O   0  0  0  0  0  0  0  0  0  0  0  0
   41.6958   43.1624   -6.9579 C   0  0  0  0  0  0  0  0  0  0  0  0
   41.5032   41.7222   -6.7382 N   0  0  0  0  0  0  0  0  0  0  0  0
  1  2  1  6  0  0  0
  1  7  1  0  0  0  0
  1 30  1  0  0  0  0
  3  4  1  6  0  0  0
  3  9  1  0  0  0  0
  3 39  1  0  0  0  0
  5 10  1  0  0  0  0
  5 26  1  0  0  0  0
  5 32  1  1  0  0  0
  6 12  1  0  0  0  0
  6 36  1  0  0  0  0
  6 19  1  1  0  0  0
  7  8  1  6  0  0  0
  7 14  1  0  0  0  0
  9 16  1  0  0  0  0
 10 11  1  6  0  0  0
 10 18  1  0  0  0  0
 12 13  1  1  0  0  0
 12 20  1  0  0  0  0
 14 15  1  1  0  0  0
 14 22  1  0  0  0  0
 16 17  1  6  0  0  0
 16 24  1  0  0  0  0
 18 19  1  6  0  0  0
 18 25  1  0  0  0  0
 20 21  1  1  0  0  0
 20 27  1  0  0  0  0
 22 23  1  6  0  0  0
 22 29  1  0  0  0  0
 24  2  1  1  0  0  0
 24 31  1  0  0  0  0
 25 26  1  0  0  0  0
 25 33  1  1  0  0  0
 27 28  1  1  0  0  0
 27 35  1  0  0  0  0
 29 30  1  0  0  0  0
 29 37  1  1  0  0  0
 31 32  1  6  0  0  0
 31 39  1  0  0  0  0
 33 34  1  0  0  0  0
 35 36  1  0  0  0  0
 35 41  1  1  0  0  0
 37 38  1  0  0  0  0
 39 40  1  1  0  0  0
 41 42  1  0  0  0  0
M  END
>  <CHROM.1>
-156.61475697,99.68579245,-151.01744246,-122.44036220,123.34934431,-139.67609498
66.63787447,-62.13265113,-81.10239292,37.80617310,42.07585555,-4.41952246
-2.38728272,0.88819895,-0.54560097

>  <Name>
3c44_lig

>  <RI>
0

>  <Rbt.Current_Directory>
/home/itssahil/PROJECTS/Mol_Feturizer/New_Systems/rnas/3c44

>  <Rbt.Executable>
rbdock ($Id: //depot/dev/client3/rdock/2013.1/src/exe/rbdock.cxx#4 $)

>  <Rbt.Library>
libRbt.so (2013.1, Build901 2013/11/27)

>  <Rbt.Parameter_File>
/export/apps/rDock/src/rDock_2013.1_src/data/scripts/dock_solv.prm

>  <Rbt.Receptor>
prm/blind_docking_80.prm

>  <SCORE>
20.9951

>  <SCORE.INTER>
-4.39078

>  <SCORE.INTER.CONST>
1

>  <SCORE.INTER.POLAR>
-0.78629

>  <SCORE.INTER.ROT>
9

>  <SCORE.INTER.SOLV>
26.1806

>  <SCORE.INTER.VDW>
-18.6331

>  <SCORE.INTER.norm>
-0.104542

>  <SCORE.INTRA>
23.0849

>  <SCORE.INTRA.DIHEDRAL>
15.8032

>  <SCORE.INTRA.DIHEDRAL.0>
14.8538

>  <SCORE.INTRA.POLAR>
0

>  <SCORE.INTRA.POLAR.0>
0

>  <SCORE.INTRA.REPUL>
0.00630357

>  <SCORE.INTRA.REPUL.0>
0

>  <SCORE.INTRA.SOLV>
1.46211

>  <SCORE.INTRA.SOLV.lig_0>
-100.951

>  <SCORE.INTRA.VDW>
14.4207

>  <SCORE.INTRA.VDW.0>
-5.71388

>  <SCORE.INTRA.norm>
0.549641

>  <SCORE.RESTR>
2.30099

>  <SCORE.RESTR.CAVITY>
2.30099

>  <SCORE.RESTR.norm>
0.0547855

>  <SCORE.SYSTEM>
0

>  <SCORE.SYSTEM.CONST>
0

>  <SCORE.SYSTEM.DIHEDRAL>
0

>  <SCORE.SYSTEM.SOLV>
0

>  <SCORE.SYSTEM.norm>
0

>  <SCORE.heavy>
42

>  <SCORE.norm>
0.499884

>  <RMSD>
11.627

$$$$
3c44_lig
 OpenBabel11021811463D
libRbt.so/2013.1/901 2013/11/27
 42 45  0  0  0  0  0  0  0  0999 V2000
   37.3054   45.0740   -4.2019 C   0  0  2  0  0  0  0  0  0  0  0  0
   37.1561   45.1916   -5.6251 O   0  0  0  0  0  0  0  0  0  0  0  0
   37.1002   48.5966   -7.9900 C   0  0  2  0  0  0  0  0  0  0  0  0
   37.2602   49.8602   -8.7259 N   0  0  0  0  0  0  0  0  0  0  0  0
   38.7773   43.9906   -7.9352 C   0  0  1  0  0  0  0  0  0  0  0  0
   37.9635   40.0844   -8.3081 C   0  0  1  0  0  0  0  0  0  0  0  0
   38.3621   44.0074   -3.8957 C   0  0  2  0  0  0  0  0  0  0  0  0
   39.6234   44.3049   -4.5896 N   0  0  0  0  0  0  0  0  0  0  0  0
   37.0749   48.8510   -6.4801 C   0  0  0  0  0  0  0  0  0  0  0  0
   39.8555   43.2593   -8.7363 C   0  0  2  0  0  0  0  0  0  0  0  0
   39.5869   43.3742  -10.1350 O   0  0  0  0  0  0  0  0  0  0  0  0
   36.5533   39.7189   -8.7830 C   0  0  2  0  0  0  0  0  0  0  0  0
   35.6594   40.8465   -8.4854 N   0  0  0  0  0  0  0  0  0  0  0  0
   37.8818   42.6135   -4.3077 C   0  0  1  0  0  0  0  0  0  0  0  0
   38.8279   41.6378   -3.8603 O   0  0  0  0  0  0  0  0  0  0  0  0
   36.7509   47.5225   -5.7885 C   0  0  2  0  0  0  0  0  0  0  0  0
   36.7783   47.7137   -4.3306 N   0  0  0  0  0  0  0  0  0  0  0  0
   39.5729   41.8240   -8.2971 C   0  0  2  0  0  0  0  0  0  0  0  0
   38.3630   41.3341   -8.8980 O   0  0  0  0  0  0  0  0  0  0  0  0
   36.0324   38.4693   -8.0610 C   0  0  1  0  0  0  0  0  0  0  0  0
   36.7355   37.3063   -8.5058 O   0  0  0  0  0  0  0  0  0  0  0  0
   36.5168   42.3279   -3.6788 C   0  0  2  0  0  0  0  0  0  0  0  0
   36.0223   41.0729   -4.1535 O   0  0  0  0  0  0  0  0  0  0  0  0
   37.7272   46.3990   -6.1589 C   0  0  2  0  0  0  0  0  0  0  0  0
   39.3538   42.0285   -6.8063 C   0  0  2  0  0  0  0  0  0  0  0  0
   38.8250   43.3621   -6.6409 O   0  0  0  0  0  0  0  0  0  0  0  0
   36.2038   38.5981   -6.5465 C   0  0  2  0  0  0  0  0  0  0  0  0
   35.3279   39.6225   -6.0677 O   0  0  0  0  0  0  0  0  0  0  0  0
   35.5377   43.4419   -4.0526 C   0  0  2  0  0  0  0  0  0  0  0  0
   36.0427   44.7170   -3.6094 O   0  0  0  0  0  0  0  0  0  0  0  0
   37.9779   46.2548   -7.6586 C   0  0  2  0  0  0  0  0  0  0  0  0
   39.1051   45.3895   -7.8715 O   0  0  0  0  0  0  0  0  0  0  0  0
   40.6850   41.8695   -6.0687 C   0  0  0  0  0  0  0  0  0  0  0  0
   41.5935   42.8758   -6.5217 O   0  0  0  0  0  0  0  0  0  0  0  0
   37.6609   38.9534   -6.2389 C   0  0  1  0  0  0  0  0  0  0  0  0
   37.9678   40.2058   -6.8768 O   0  0  0  0  0  0  0  0  0  0  0  0
   34.2047   43.1388   -3.3637 C   0  0  0  0  0  0  0  0  0  0  0  0
   34.4137   42.9512   -1.9207 O   0  0  0  0  0  0  0  0  0  0  0  0
   38.2369   47.6209   -8.3049 C   0  0  1  0  0  0  0  0  0  0  0  0
   38.3800   47.4733   -9.7194 O   0  0  0  0  0  0  0  0  0  0  0  0
   37.9213   39.0799   -4.7374 C   0  0  0  0  0  0  0  0  0  0  0  0
   39.3634   38.9540   -4.4842 N   0  0  0  0  0  0  0  0  0  0  0  0
  1  2  1  6  0  0  0
  1  7  1  0  0  0  0
  1 30  1  0  0  0  0
  3  4  1  6  0  0  0
  3  9  1  0  0  0  0
  3 39  1  0  0  0  0
  5 10  1  0  0  0  0
  5 26  1  0  0  0  0
  5 32  1  1  0  0  0
  6 12  1  0  0  0  0
  6 36  1  0  0  0  0
  6 19  1  6  0  0  0
  7  8  1  6  0  0  0
  7 14  1  0  0  0  0
  9 16  1  0  0  0  0
 10 11  1  6  0  0  0
 10 18  1  0  0  0  0
 12 13  1  1  0  0  0
 12 20  1  0  0  0  0
 14 15  1  1  0  0  0
 14 22  1  0  0  0  0
 16 17  1  1  0  0  0
 16 24  1  0  0  0  0
 18 19  1  6  0  0  0
 18 25  1  0  0  0  0
 20 21  1  6  0  0  0
 20 27  1  0  0  0  0
 22 23  1  6  0  0  0
 22 29  1  0  0  0  0
 24  2  1  6  0  0  0
 24 31  1  0  0  0  0
 25 26  1  0  0  0  0
 25 33  1  1  0  0  0
 27 28  1  6  0  0  0
 27 35  1  0  0  0  0
 29 30  1  0  0  0  0
 29 37  1  1  0  0  0
 31 32  1  1  0  0  0
 31 39  1  0  0  0  0
 33 34  1  0  0  0  0
 35 36  1  0  0  0  0
 35 41  1  1  0  0  0
 37 38  1  0  0  0  0
 39 40  1  6  0  0  0
 41 42  1  0  0  0  0
M  END
>  <CHROM.1>
-107.11402145,155.55546936,169.80892616,-169.60756825,-75.53050139,62.12690869
53.85118171,87.40223054,160.53318057,37.67727779,43.11419548,-6.36334511
1.45873868,1.07920883,0.03847639

>  <Name>
3c44_lig

>  <RI>
0

>  <Rbt.Current_Directory>
/home/itssahil/PROJECTS/Mol_Feturizer/New_Systems/rnas/3c44

>  <Rbt.Executable>
rbdock ($Id: //depot/dev/client3/rdock/2013.1/src/exe/rbdock.cxx#4 $)

>  <Rbt.Library>
libRbt.so (2013.1, Build901 2013/11/27)

>  <Rbt.Parameter_File>
/export/apps/rDock/src/rDock_2013.1_src/data/scripts/dock_solv.prm

>  <Rbt.Receptor>
prm/blind_docking_100.prm

>  <SCORE>
25.6136

>  <SCORE.INTER>
3.00172

>  <SCORE.INTER.CONST>
1

>  <SCORE.INTER.POLAR>
-0.246582

>  <SCORE.INTER.ROT>
9

>  <SCORE.INTER.SOLV>
20.1888

>  <SCORE.INTER.VDW>
-13.5065

>  <SCORE.INTER.norm>
0.0714695

>  <SCORE.INTRA>
15.7203

>  <SCORE.INTRA.DIHEDRAL>
1.14567

>  <SCORE.INTRA.DIHEDRAL.0>
14.8538

>  <SCORE.INTRA.POLAR>
0

>  <SCORE.INTRA.POLAR.0>
0

>  <SCORE.INTRA.REPUL>
0.00365421

>  <SCORE.INTRA.REPUL.0>
0

>  <SCORE.INTRA.SOLV>
8.08282

>  <SCORE.INTRA.SOLV.lig_0>
-100.951

>  <SCORE.INTRA.VDW>
11.0878

>  <SCORE.INTRA.VDW.0>
-5.71388

>  <SCORE.INTRA.norm>
0.374293

>  <SCORE.RESTR>
6.89153

>  <SCORE.RESTR.CAVITY>
6.89153

>  <SCORE.RESTR.norm>
0.164084

>  <SCORE.SYSTEM>
0

>  <SCORE.SYSTEM.CONST>
0

>  <SCORE.SYSTEM.DIHEDRAL>
0

>  <SCORE.SYSTEM.SOLV>
0

>  <SCORE.SYSTEM.norm>
0

>  <SCORE.heavy>
42

>  <SCORE.norm>
0.609847

>  <RMSD>
11.658

$$$$
3c44_lig
 OpenBabel11021811463D
libRbt.so/2013.1/901 2013/11/27
 42 45  0  0  0  0  0  0  0  0999 V2000
   38.5106   39.7027   -6.4276 C   0  0  2  0  0  0  0  0  0  0  0  0
   37.9393   40.9403   -6.8790 O   0  0  0  0  0  0  0  0  0  0  0  0
   41.2868   41.6028   -9.2337 C   0  0  2  0  0  0  0  0  0  0  0  0
   42.3384   41.9249  -10.2106 N   0  0  0  0  0  0  0  0  0  0  0  0
   38.1815   43.5445   -5.9220 C   0  0  1  0  0  0  0  0  0  0  0  0
   36.4368   43.1448   -2.1388 C   0  0  1  0  0  0  0  0  0  0  0  0
   37.6643   39.1511   -5.2755 C   0  0  2  0  0  0  0  0  0  0  0  0
   36.2542   39.0294   -5.6728 N   0  0  0  0  0  0  0  0  0  0  0  0
   40.1946   40.7453   -9.8796 C   0  0  0  0  0  0  0  0  0  0  0  0
   38.8572   44.2414   -4.7401 C   0  0  2  0  0  0  0  0  0  0  0  0
   39.8500   43.3855   -4.1712 O   0  0  0  0  0  0  0  0  0  0  0  0
   35.1418   42.4010   -2.4816 C   0  0  2  0  0  0  0  0  0  0  0  0
   34.6369   42.9191   -3.7606 N   0  0  0  0  0  0  0  0  0  0  0  0
   37.7591   40.0458   -4.0371 C   0  0  1  0  0  0  0  0  0  0  0  0
   37.0859   39.4119   -2.9451 O   0  0  0  0  0  0  0  0  0  0  0  0
   39.2212   40.3201   -8.7752 C   0  0  2  0  0  0  0  0  0  0  0  0
   38.1217   39.5439   -9.3682 N   0  0  0  0  0  0  0  0  0  0  0  0
   37.6721   44.3264   -3.7803 C   0  0  2  0  0  0  0  0  0  0  0  0
   37.3622   43.0337   -3.2344 O   0  0  0  0  0  0  0  0  0  0  0  0
   34.0744   42.6208   -1.4016 C   0  0  1  0  0  0  0  0  0  0  0  0
   34.4286   41.9284   -0.2016 O   0  0  0  0  0  0  0  0  0  0  0  0
   39.2271   40.2714   -3.6709 C   0  0  2  0  0  0  0  0  0  0  0  0
   39.3143   41.1949   -2.5825 O   0  0  0  0  0  0  0  0  0  0  0  0
   38.6300   41.5079   -8.0058 C   0  0  2  0  0  0  0  0  0  0  0  0
   36.5700   44.7516   -4.7377 C   0  0  2  0  0  0  0  0  0  0  0  0
   36.9101   44.2107   -6.0328 O   0  0  0  0  0  0  0  0  0  0  0  0
   33.9140   44.1079   -1.0820 C   0  0  2  0  0  0  0  0  0  0  0  0
   33.3476   44.7664   -2.2185 O   0  0  0  0  0  0  0  0  0  0  0  0
   39.9767   40.8299   -4.8814 C   0  0  2  0  0  0  0  0  0  0  0  0
   39.8665   39.9231   -5.9962 O   0  0  0  0  0  0  0  0  0  0  0  0
   39.6640   42.5307   -7.5396 C   0  0  2  0  0  0  0  0  0  0  0  0
   38.9906   43.7207   -7.0980 O   0  0  0  0  0  0  0  0  0  0  0  0
   36.4949   46.2793   -4.7825 C   0  0  0  0  0  0  0  0  0  0  0  0
   37.6522   46.7848   -5.4519 O   0  0  0  0  0  0  0  0  0  0  0  0
   35.2880   44.6973   -0.7523 C   0  0  1  0  0  0  0  0  0  0  0  0
   36.1414   44.5299   -1.8981 O   0  0  0  0  0  0  0  0  0  0  0  0
   41.4458   40.9932   -4.4830 C   0  0  0  0  0  0  0  0  0  0  0  0
   42.2393   41.4187   -5.6449 O   0  0  0  0  0  0  0  0  0  0  0  0
   40.6447   42.8719   -8.6678 C   0  0  1  0  0  0  0  0  0  0  0  0
   41.6549   43.7606   -8.1854 O   0  0  0  0  0  0  0  0  0  0  0  0
   35.2109   46.1831   -0.3989 C   0  0  0  0  0  0  0  0  0  0  0  0
   34.6630   46.9247   -1.5432 N   0  0  0  0  0  0  0  0  0  0  0  0
  1  2  1  1  0  0  0
  1  7  1  0  0  0  0
  1 30  1  0  0  0  0
  3  4  1  6  0  0  0
  3  9  1  0  0  0  0
  3 39  1  0  0  0  0
  5 10  1  0  0  0  0
  5 26  1  0  0  0  0
  5 32  1  6  0  0  0
  6 12  1  0  0  0  0
  6 36  1  0  0  0  0
  6 19  1  6  0  0  0
  7  8  1  6  0  0  0
  7 14  1  0  0  0  0
  9 16  1  0  0  0  0
 10 11  1  1  0  0  0
 10 18  1  0  0  0  0
 12 13  1  6  0  0  0
 12 20  1  0  0  0  0
 14 15  1  1  0  0  0
 14 22  1  0  0  0  0
 16 17  1  6  0  0  0
 16 24  1  0  0  0  0
 18 19  1  6  0  0  0
 18 25  1  0  0  0  0
 20 21  1  1  0  0  0
 20 27  1  0  0  0  0
 22 23  1  1  0  0  0
 22 29  1  0  0  0  0
 24  2  1  1  0  0  0
 24 31  1  0  0  0  0
 25 26  1  0  0  0  0
 25 33  1  6  0  0  0
 27 28  1  6  0  0  0
 27 35  1  0  0  0  0
 29 30  1  0  0  0  0
 29 37  1  1  0  0  0
 31 32  1  6  0  0  0
 31 39  1  0  0  0  0
 33 34  1  0  0  0  0
 35 36  1  0  0  0  0
 35 41  1  6  0  0  0
 37 38  1  0  0  0  0
 39 40  1  1  0  0  0
 41 42  1  0  0  0  0
M  END
>  <CHROM.1>
-177.24507852,108.45628682,118.05415400,168.37331154,29.27772987,70.18275317
175.14378973,65.94297418,-60.32791006,37.88767048,42.55016299,-4.88817748
0.25817601,-0.89355570,3.02086738

>  <Name>
3c44_lig

>  <RI>
0

>  <Rbt.Current_Directory>
/home/itssahil/PROJECTS/Mol_Feturizer/New_Systems/rnas/3c44

>  <Rbt.Executable>
rbdock ($Id: //depot/dev/client3/rdock/2013.1/src/exe/rbdock.cxx#4 $)

>  <Rbt.Library>
libRbt.so (2013.1, Build901 2013/11/27)

>  <Rbt.Parameter_File>
/export/apps/rDock/src/rDock_2013.1_src/data/scripts/dock_solv.prm

>  <Rbt.Receptor>
prm/blind_docking_100.prm

>  <SCORE>
18.1025

>  <SCORE.INTER>
0.165312

>  <SCORE.INTER.CONST>
1

>  <SCORE.INTER.POLAR>
-0.269024

>  <SCORE.INTER.ROT>
9

>  <SCORE.INTER.SOLV>
23.165

>  <SCORE.INTER.VDW>
-16.3147

>  <SCORE.INTER.norm>
0.003936

>  <SCORE.INTRA>
11.8362

>  <SCORE.INTRA.DIHEDRAL>
4.13486

>  <SCORE.INTRA.DIHEDRAL.0>
14.8538

>  <SCORE.INTRA.POLAR>
0

>  <SCORE.INTRA.POLAR.0>
0

>  <SCORE.INTRA.REPUL>
0.0546903

>  <SCORE.INTRA.REPUL.0>
0

>  <SCORE.INTRA.SOLV>
4.86422

>  <SCORE.INTRA.SOLV.lig_0>
-100.951

>  <SCORE.INTRA.VDW>
7.06322

>  <SCORE.INTRA.VDW.0>
-5.71388

>  <SCORE.INTRA.norm>
0.281814

>  <SCORE.RESTR>
6.10097

>  <SCORE.RESTR.CAVITY>
6.10097

>  <SCORE.RESTR.norm>
0.145261

>  <SCORE.SYSTEM>
0

>  <SCORE.SYSTEM.CONST>
0

>  <SCORE.SYSTEM.DIHEDRAL>
0

>  <SCORE.SYSTEM.SOLV>
0

>  <SCORE.SYSTEM.norm>
0

>  <SCORE.heavy>
42

>  <SCORE.norm>
0.431012

>  <RMSD>
11.680

$$$$
3c44_lig
 OpenBabel11021811463D
libRbt.so/2013.1/901 2013/11/27
 42 45  0  0  0  0  0  0  0  0999 V2000
   39.7720   44.3918   -7.8314 C   0  0  2  0  0  0  0  0  0  0  0  0
   38.3432   44.2842   -7.9246 O   0  0  0  0  0  0  0  0  0  0  0  0
   38.1697   48.3377   -7.0707 C   0  0  2  0  0  0  0  0  0  0  0  0
   37.9134   49.7704   -6.8577 N   0  0  0  0  0  0  0  0  0  0  0  0
   37.0739   43.8746   -5.3044 C   0  0  1  0  0  0  0  0  0  0  0  0
   38.0930   40.2102   -3.5060 C   0  0  1  0  0  0  0  0  0  0  0  0
   40.4087   43.6313   -8.9994 C   0  0  2  0  0  0  0  0  0  0  0  0
   39.8732   44.1018  -10.2850 N   0  0  0  0  0  0  0  0  0  0  0  0
   38.0149   47.9759   -8.5507 C   0  0  0  0  0  0  0  0  0  0  0  0
   36.2239   43.3503   -4.1460 C   0  0  2  0  0  0  0  0  0  0  0  0
   36.7194   43.8607   -2.9068 O   0  0  0  0  0  0  0  0  0  0  0  0
   38.9449   39.5925   -4.6198 C   0  0  2  0  0  0  0  0  0  0  0  0
   38.3019   39.8844   -5.9084 N   0  0  0  0  0  0  0  0  0  0  0  0
   40.1685   42.1243   -8.8794 C   0  0  1  0  0  0  0  0  0  0  0  0
   40.9108   41.4463   -9.8976 O   0  0  0  0  0  0  0  0  0  0  0  0
   38.4459   46.5154   -8.7215 C   0  0  2  0  0  0  0  0  0  0  0  0
   38.2526   46.1119  -10.1225 N   0  0  0  0  0  0  0  0  0  0  0  0
   36.5584   41.8626   -4.2347 C   0  0  2  0  0  0  0  0  0  0  0  0
   37.8946   41.6102   -3.7699 O   0  0  0  0  0  0  0  0  0  0  0  0
   39.0546   38.0711   -4.4539 C   0  0  1  0  0  0  0  0  0  0  0  0
   39.8760   37.7496   -3.3284 O   0  0  0  0  0  0  0  0  0  0  0  0
   40.6230   41.6341   -7.5034 C   0  0  2  0  0  0  0  0  0  0  0  0
   40.2963   40.2499   -7.3545 O   0  0  0  0  0  0  0  0  0  0  0  0
   37.6694   45.5505   -7.8168 C   0  0  2  0  0  0  0  0  0  0  0  0
   36.4954   41.6536   -5.7395 C   0  0  2  0  0  0  0  0  0  0  0  0
   36.8609   42.9096   -6.3513 O   0  0  0  0  0  0  0  0  0  0  0  0
   37.6762   37.4394   -4.2528 C   0  0  2  0  0  0  0  0  0  0  0  0
   36.9277   37.5675   -5.4650 O   0  0  0  0  0  0  0  0  0  0  0  0
   39.9242   42.4483   -6.4135 C   0  0  2  0  0  0  0  0  0  0  0  0
   40.2183   43.8500   -6.5743 O   0  0  0  0  0  0  0  0  0  0  0  0
   37.5862   45.9896   -6.3564 C   0  0  2  0  0  0  0  0  0  0  0  0
   36.6111   45.1856   -5.6726 O   0  0  0  0  0  0  0  0  0  0  0  0
   35.0770   41.2402   -6.1379 C   0  0  0  0  0  0  0  0  0  0  0  0
   34.8583   39.8831   -5.7462 O   0  0  0  0  0  0  0  0  0  0  0  0
   36.9620   38.1578   -3.1049 C   0  0  1  0  0  0  0  0  0  0  0  0
   36.8204   39.5458   -3.4554 O   0  0  0  0  0  0  0  0  0  0  0  0
   40.4449   41.9562   -5.0606 C   0  0  0  0  0  0  0  0  0  0  0  0
   41.7785   41.3588   -5.2203 O   0  0  0  0  0  0  0  0  0  0  0  0
   37.2099   47.4722   -6.2503 C   0  0  1  0  0  0  0  0  0  0  0  0
   37.2250   47.8838   -4.8816 O   0  0  0  0  0  0  0  0  0  0  0  0
   35.5787   37.5691   -2.8249 C   0  0  0  0  0  0  0  0  0  0  0  0
   34.7916   37.5719   -4.0659 N   0  0  0  0  0  0  0  0  0  0  0  0
  1  2  1  6  0  0  0
  1  7  1  0  0  0  0
  1 30  1  0  0  0  0
  3  4  1  6  0  0  0
  3  9  1  0  0  0  0
  3 39  1  0  0  0  0
  5 10  1  0  0  0  0
  5 26  1  0  0  0  0
  5 32  1  6  0  0  0
  6 12  1  0  0  0  0
  6 36  1  0  0  0  0
  6 19  1  6  0  0  0
  7  8  1  6  0  0  0
  7 14  1  0  0  0  0
  9 16  1  0  0  0  0
 10 11  1  1  0  0  0
 10 18  1  0  0  0  0
 12 13  1  6  0  0  0
 12 20  1  0  0  0  0
 14 15  1  6  0  0  0
 14 22  1  0  0  0  0
 16 17  1  6  0  0  0
 16 24  1  0  0  0  0
 18 19  1  6  0  0  0
 18 25  1  0  0  0  0
 20 21  1  1  0  0  0
 20 27  1  0  0  0  0
 22 23  1  1  0  0  0
 22 29  1  0  0  0  0
 24  2  1  1  0  0  0
 24 31  1  0  0  0  0
 25 26  1  0  0  0  0
 25 33  1  1  0  0  0
 27 28  1  6  0  0  0
 27 35  1  0  0  0  0
 29 30  1  0  0  0  0
 29 37  1  1  0  0  0
 31 32  1  1  0  0  0
 31 39  1  0  0  0  0
 33 34  1  0  0  0  0
 35 36  1  0  0  0  0
 35 41  1  6  0  0  0
 37 38  1  0  0  0  0
 39 40  1  1  0  0  0
 41 42  1  0  0  0  0
M  END
>  <CHROM.1>
-130.12739124,157.34272825,105.31691244,164.32710080,45.42138297,-74.14901726
24.82131033,78.47247495,-54.54269426,38.11165480,42.48710283,-6.01651812
-1.42155275,-0.73449840,2.82815872

>  <Name>
3c44_lig

>  <RI>
0

>  <Rbt.Current_Directory>
/home/itssahil/PROJECTS/Mol_Feturizer/New_Systems/rnas/3c44

>  <Rbt.Executable>
rbdock ($Id: //depot/dev/client3/rdock/2013.1/src/exe/rbdock.cxx#4 $)

>  <Rbt.Library>
libRbt.so (2013.1, Build901 2013/11/27)

>  <Rbt.Parameter_File>
/export/apps/rDock/src/rDock_2013.1_src/data/scripts/dock_solv.prm

>  <Rbt.Receptor>
prm/blind_docking_100.prm

>  <SCORE>
19.672

>  <SCORE.INTER>
-3.63588

>  <SCORE.INTER.CONST>
1

>  <SCORE.INTER.POLAR>
-0.201838

>  <SCORE.INTER.ROT>
9

>  <SCORE.INTER.SOLV>
22.8692

>  <SCORE.INTER.VDW>
-18.9742

>  <SCORE.INTER.norm>
-0.0865686

>  <SCORE.INTRA>
18.6512

>  <SCORE.INTRA.DIHEDRAL>
8.45707

>  <SCORE.INTRA.DIHEDRAL.0>
14.8538

>  <SCORE.INTRA.POLAR>
0

>  <SCORE.INTRA.POLAR.0>
0

>  <SCORE.INTRA.REPUL>
0.237668

>  <SCORE.INTRA.REPUL.0>
0

>  <SCORE.INTRA.SOLV>
10.3872

>  <SCORE.INTRA.SOLV.lig_0>
-100.951

>  <SCORE.INTRA.VDW>
8.04072

>  <SCORE.INTRA.VDW.0>
-5.71388

>  <SCORE.INTRA.norm>
0.444076

>  <SCORE.RESTR>
4.65675

>  <SCORE.RESTR.CAVITY>
4.65675

>  <SCORE.RESTR.norm>
0.110875

>  <SCORE.SYSTEM>
0

>  <SCORE.SYSTEM.CONST>
0

>  <SCORE.SYSTEM.DIHEDRAL>
0

>  <SCORE.SYSTEM.SOLV>
0

>  <SCORE.SYSTEM.norm>
0

>  <SCORE.heavy>
42

>  <SCORE.norm>
0.468382

>  <RMSD>
11.722

$$$$
3c44_lig
 OpenBabel11021811463D
libRbt.so/2013.1/901 2013/11/27
 42 45  0  0  0  0  0  0  0  0999 V2000
   40.5173   43.5126   -7.3322 C   0  0  2  0  0  0  0  0  0  0  0  0
   40.2064   42.1249   -7.5307 O   0  0  0  0  0  0  0  0  0  0  0  0
   40.8342   39.1802   -4.6804 C   0  0  2  0  0  0  0  0  0  0  0  0
   40.9128   38.2416   -3.5505 N   0  0  0  0  0  0  0  0  0  0  0  0
   37.1509   40.7673   -6.3292 C   0  0  1  0  0  0  0  0  0  0  0  0
   34.9785   42.5621   -3.9934 C   0  0  1  0  0  0  0  0  0  0  0  0
   39.3152   44.2074   -6.6839 C   0  0  2  0  0  0  0  0  0  0  0  0
   38.9158   43.5188   -5.4481 N   0  0  0  0  0  0  0  0  0  0  0  0
   41.1233   40.6103   -4.2151 C   0  0  0  0  0  0  0  0  0  0  0  0
   36.0442   41.3290   -7.2228 C   0  0  2  0  0  0  0  0  0  0  0  0
   36.4635   42.5674   -7.7992 O   0  0  0  0  0  0  0  0  0  0  0  0
   34.7932   43.9225   -3.3131 C   0  0  2  0  0  0  0  0  0  0  0  0
   36.0163   44.7109   -3.5173 N   0  0  0  0  0  0  0  0  0  0  0  0
   38.1191   44.2557   -7.6379 C   0  0  1  0  0  0  0  0  0  0  0  0
   37.0812   45.0479   -7.0525 O   0  0  0  0  0  0  0  0  0  0  0  0
   41.1787   41.5034   -5.4590 C   0  0  2  0  0  0  0  0  0  0  0  0
   41.3942   42.8987   -5.0468 N   0  0  0  0  0  0  0  0  0  0  0  0
   34.9796   41.6137   -6.1652 C   0  0  2  0  0  0  0  0  0  0  0  0
   35.3394   42.7568   -5.3721 O   0  0  0  0  0  0  0  0  0  0  0  0
   34.5538   43.7602   -1.8063 C   0  0  1  0  0  0  0  0  0  0  0  0
   33.2600   43.2017   -1.5637 O   0  0  0  0  0  0  0  0  0  0  0  0
   38.5433   44.8738   -8.9714 C   0  0  2  0  0  0  0  0  0  0  0  0
   37.4537   44.8165   -9.8958 O   0  0  0  0  0  0  0  0  0  0  0  0
   39.9038   41.4295   -6.3086 C   0  0  2  0  0  0  0  0  0  0  0  0
   35.0852   40.3544   -5.3197 C   0  0  2  0  0  0  0  0  0  0  0  0
   36.4509   39.8962   -5.4215 O   0  0  0  0  0  0  0  0  0  0  0  0
   35.6086   42.8483   -1.1773 C   0  0  2  0  0  0  0  0  0  0  0  0
   36.8765   43.5089   -1.2220 O   0  0  0  0  0  0  0  0  0  0  0  0
   39.7382   44.1037   -9.5355 C   0  0  2  0  0  0  0  0  0  0  0  0
   40.8316   44.1251   -8.5967 O   0  0  0  0  0  0  0  0  0  0  0  0
   39.4292   40.0084   -6.6051 C   0  0  2  0  0  0  0  0  0  0  0  0
   38.0978   40.0542   -7.1437 O   0  0  0  0  0  0  0  0  0  0  0  0
   34.1108   39.3006   -5.8504 C   0  0  0  0  0  0  0  0  0  0  0  0
   34.5730   38.8339   -7.1198 O   0  0  0  0  0  0  0  0  0  0  0  0
   35.6622   41.5344   -1.9614 C   0  0  1  0  0  0  0  0  0  0  0  0
   36.0182   41.8318   -3.3231 O   0  0  0  0  0  0  0  0  0  0  0  0
   40.1558   44.7857  -10.8408 C   0  0  0  0  0  0  0  0  0  0  0  0
   38.9881   44.9551  -11.7176 O   0  0  0  0  0  0  0  0  0  0  0  0
   39.4516   39.1471   -5.3368 C   0  0  1  0  0  0  0  0  0  0  0  0
   39.0901   37.8010   -5.6534 O   0  0  0  0  0  0  0  0  0  0  0  0
   36.6824   40.5547   -1.3803 C   0  0  0  0  0  0  0  0  0  0  0  0
   36.7824   39.3819   -2.2602 N   0  0  0  0  0  0  0  0  0  0  0  0
  1  2  1  6  0  0  0
  1  7  1  0  0  0  0
  1 30  1  0  0  0  0
  3  4  1  1  0  0  0
  3  9  1  0  0  0  0
  3 39  1  0  0  0  0
  5 10  1  0  0  0  0
  5 26  1  0  0  0  0
  5 32  1  6  0  0  0
  6 12  1  0  0  0  0
  6 36  1  0  0  0  0
  6 19  1  6  0  0  0
  7  8  1  1  0  0  0
  7 14  1  0  0  0  0
  9 16  1  0  0  0  0
 10 11  1  1  0  0  0
 10 18  1  0  0  0  0
 12 13  1  1  0  0  0
 12 20  1  0  0  0  0
 14 15  1  1  0  0  0
 14 22  1  0  0  0  0
 16 17  1  1  0  0  0
 16 24  1  0  0  0  0
 18 19  1  1  0  0  0
 18 25  1  0  0  0  0
 20 21  1  6  0  0  0
 20 27  1  0  0  0  0
 22 23  1  6  0  0  0
 22 29  1  0  0  0  0
 24  2  1  6  0  0  0
 24 31  1  0  0  0  0
 25 26  1  0  0  0  0
 25 33  1  6  0  0  0
 27 28  1  6  0  0  0
 27 35  1  0  0  0  0
 29 30  1  0  0  0  0
 29 37  1  6  0  0  0
 31 32  1  1  0  0  0
 31 39  1  0  0  0  0
 33 34  1  0  0  0  0
 35 36  1  0  0  0  0
 35 41  1  1  0  0  0
 37 38  1  0  0  0  0
 39 40  1  6  0  0  0
 41 42  1  0  0  0  0
M  END
>  <CHROM.1>
-59.96570485,152.89205325,-155.56848756,-141.82045218,-62.29745529,69.64527517
-51.04109292,-54.12041210,-174.05199155,37.66098761,42.06399479,-5.68830190
-0.89284195,-0.59628895,2.33381922

>  <Name>
3c44_lig

>  <RI>
0

>  <Rbt.Current_Directory>
/home/itssahil/PROJECTS/Mol_Feturizer/New_Systems/rnas/3c44

>  <Rbt.Executable>
rbdock ($Id: //depot/dev/client3/rdock/2013.1/src/exe/rbdock.cxx#4 $)

>  <Rbt.Library>
libRbt.so (2013.1, Build901 2013/11/27)

>  <Rbt.Parameter_File>
/export/apps/rDock/src/rDock_2013.1_src/data/scripts/dock_solv.prm

>  <Rbt.Receptor>
prm/blind_docking_100.prm

>  <SCORE>
44.2969

>  <SCORE.INTER>
21.7077

>  <SCORE.INTER.CONST>
1

>  <SCORE.INTER.POLAR>
-0.731534

>  <SCORE.INTER.ROT>
9

>  <SCORE.INTER.SOLV>
25.1819

>  <SCORE.INTER.VDW>
-1.08371

>  <SCORE.INTER.norm>
0.51685

>  <SCORE.INTRA>
21.1602

>  <SCORE.INTRA.DIHEDRAL>
-3.23955

>  <SCORE.INTRA.DIHEDRAL.0>
14.8538

>  <SCORE.INTRA.POLAR>
0

>  <SCORE.INTRA.POLAR.0>
0

>  <SCORE.INTRA.REPUL>
0.319882

>  <SCORE.INTRA.REPUL.0>
0

>  <SCORE.INTRA.SOLV>
8.9233

>  <SCORE.INTRA.SOLV.lig_0>
-100.951

>  <SCORE.INTRA.VDW>
16.7189

>  <SCORE.INTRA.VDW.0>
-5.71388

>  <SCORE.INTRA.norm>
0.503813

>  <SCORE.RESTR>
1.42902

>  <SCORE.RESTR.CAVITY>
1.42902

>  <SCORE.RESTR.norm>
0.0340243

>  <SCORE.SYSTEM>
0

>  <SCORE.SYSTEM.CONST>
0

>  <SCORE.SYSTEM.DIHEDRAL>
0

>  <SCORE.SYSTEM.SOLV>
0

>  <SCORE.SYSTEM.norm>
0

>  <SCORE.heavy>
42

>  <SCORE.norm>
1.05469

>  <RMSD>
11.739

$$$$
3c44_lig
 OpenBabel11021811463D
libRbt.so/2013.1/901 2013/11/27
 42 45  0  0  0  0  0  0  0  0999 V2000
   35.5233   39.3902   -1.1386 C   0  0  2  0  0  0  0  0  0  0  0  0
   36.3972   40.3598   -0.5403 O   0  0  0  0  0  0  0  0  0  0  0  0
   33.8637   43.2828   -2.0327 C   0  0  2  0  0  0  0  0  0  0  0  0
   33.0501   44.4480   -2.4126 N   0  0  0  0  0  0  0  0  0  0  0  0
   38.1043   42.2166   -3.4999 C   0  0  1  0  0  0  0  0  0  0  0  0
   38.3139   41.2557   -6.2573 C   0  0  1  0  0  0  0  0  0  0  0  0
   35.6126   38.0804   -0.3484 C   0  0  2  0  0  0  0  0  0  0  0  0
   35.3374   38.3090    1.0775 N   0  0  0  0  0  0  0  0  0  0  0  0
   33.6815   42.9586   -0.5472 C   0  0  0  0  0  0  0  0  0  0  0  0
   39.2118   43.2130   -3.8457 C   0  0  2  0  0  0  0  0  0  0  0  0
   38.6430   44.4062   -4.3884 O   0  0  0  0  0  0  0  0  0  0  0  0
   38.6406   40.5221   -7.5623 C   0  0  2  0  0  0  0  0  0  0  0  0
   38.4626   41.4625   -8.6773 N   0  0  0  0  0  0  0  0  0  0  0  0
   36.9932   37.4355   -0.4938 C   0  0  1  0  0  0  0  0  0  0  0  0
   36.9784   36.1458    0.1257 O   0  0  0  0  0  0  0  0  0  0  0  0
   34.4285   41.6519   -0.2599 C   0  0  2  0  0  0  0  0  0  0  0  0
   34.3276   41.3390    1.1736 N   0  0  0  0  0  0  0  0  0  0  0  0
   39.9075   42.4448   -4.9677 C   0  0  2  0  0  0  0  0  0  0  0  0
   39.1093   42.4504   -6.1627 O   0  0  0  0  0  0  0  0  0  0  0  0
   37.7074   39.3225   -7.7718 C   0  0  1  0  0  0  0  0  0  0  0  0
   38.0135   38.2830   -6.8387 O   0  0  0  0  0  0  0  0  0  0  0  0
   37.3433   37.2869   -1.9755 C   0  0  2  0  0  0  0  0  0  0  0  0
   38.6766   36.7867   -2.1063 O   0  0  0  0  0  0  0  0  0  0  0  0
   35.9104   41.7088   -0.6511 C   0  0  2  0  0  0  0  0  0  0  0  0
   39.9257   41.0446   -4.3749 C   0  0  2  0  0  0  0  0  0  0  0  0
   38.7731   40.9417   -3.5110 O   0  0  0  0  0  0  0  0  0  0  0  0
   36.2432   39.7274   -7.5935 C   0  0  2  0  0  0  0  0  0  0  0  0
   35.8719   40.6016   -8.6632 O   0  0  0  0  0  0  0  0  0  0  0  0
   37.2333   38.6469   -2.6665 C   0  0  2  0  0  0  0  0  0  0  0  0
   35.9022   39.1773   -2.5113 O   0  0  0  0  0  0  0  0  0  0  0  0
   36.1685   42.2572   -2.0530 C   0  0  2  0  0  0  0  0  0  0  0  0
   37.5697   42.5375   -2.2038 O   0  0  0  0  0  0  0  0  0  0  0  0
   41.2223   40.8408   -3.5883 C   0  0  0  0  0  0  0  0  0  0  0  0
   42.3262   40.8508   -4.4961 O   0  0  0  0  0  0  0  0  0  0  0  0
   36.0828   40.4344   -6.2450 C   0  0  1  0  0  0  0  0  0  0  0  0
   36.9204   41.6040   -6.2424 O   0  0  0  0  0  0  0  0  0  0  0  0
   37.5444   38.4399   -4.1510 C   0  0  0  0  0  0  0  0  0  0  0  0
   38.9624   38.0939   -4.3259 O   0  0  0  0  0  0  0  0  0  0  0  0
   35.3501   43.5295   -2.3032 C   0  0  1  0  0  0  0  0  0  0  0  0
   35.5375   43.9748   -3.6484 O   0  0  0  0  0  0  0  0  0  0  0  0
   34.6366   40.8544   -5.9799 C   0  0  0  0  0  0  0  0  0  0  0  0
   34.6224   41.9467   -4.9969 N   0  0  0  0  0  0  0  0  0  0  0  0
  1  2  1  1  0  0  0
  1  7  1  0  0  0  0
  1 30  1  0  0  0  0
  3  4  1  1  0  0  0
  3  9  1  0  0  0  0
  3 39  1  0  0  0  0
  5 10  1  0  0  0  0
  5 26  1  0  0  0  0
  5 32  1  1  0  0  0
  6 12  1  0  0  0  0
  6 36  1  0  0  0  0
  6 19  1  6  0  0  0
  7  8  1  1  0  0  0
  7 14  1  0  0  0  0
  9 16  1  0  0  0  0
 10 11  1  6  0  0  0
 10 18  1  0  0  0  0
 12 13  1  6  0  0  0
 12 20  1  0  0  0  0
 14 15  1  6  0  0  0
 14 22  1  0  0  0  0
 16 17  1  1  0  0  0
 16 24  1  0  0  0  0
 18 19  1  6  0  0  0
 18 25  1  0  0  0  0
 20 21  1  1  0  0  0
 20 27  1  0  0  0  0
 22 23  1  1  0  0  0
 22 29  1  0  0  0  0
 24  2  1  6  0  0  0
 24 31  1  0  0  0  0
 25 26  1  0  0  0  0
 25 33  1  1  0  0  0
 27 28  1  6  0  0  0
 27 35  1  0  0  0  0
 29 30  1  0  0  0  0
 29 37  1  6  0  0  0
 31 32  1  1  0  0  0
 31 39  1  0  0  0  0
 33 34  1  0  0  0  0
 35 36  1  0  0  0  0
 35 41  1  6  0  0  0
 37 38  1  0  0  0  0
 39 40  1  6  0  0  0
 41 42  1  0  0  0  0
M  END
>  <CHROM.1>
-147.46580410,147.00222142,-122.12170820,-95.69799319,45.94901477,-66.60962084
-68.43164310,141.55982212,-157.72874046,37.06614948,40.70804029,-3.58474704
-2.33047551,0.87632485,-0.80874324

>  <Name>
3c44_lig

>  <RI>
224

>  <Rbt.Current_Directory>
/home/itssahil/PROJECTS/Mol_Feturizer/New_Systems/rnas/3c44

>  <Rbt.Executable>
rbdock ($Id: //depot/dev/client3/rdock/2013.1/src/exe/rbdock.cxx#4 $)

>  <Rbt.Library>
libRbt.so (2013.1, Build901 2013/11/27)

>  <Rbt.Parameter_File>
/export/apps/rDock/src/rDock_2013.1_src/data/scripts/dock_solv.prm

>  <Rbt.Receptor>
prm/blind_docking_60.prm

>  <SCORE>
22.5477

>  <SCORE.INTER>
-4.92311

>  <SCORE.INTER.CONST>
1

>  <SCORE.INTER.POLAR>
-0.648536

>  <SCORE.INTER.ROT>
9

>  <SCORE.INTER.SOLV>
22.4432

>  <SCORE.INTER.VDW>
-18.2013

>  <SCORE.INTER.norm>
-0.117217

>  <SCORE.INTRA>
17.7077

>  <SCORE.INTRA.DIHEDRAL>
13.2439

>  <SCORE.INTRA.DIHEDRAL.0>
14.8538

>  <SCORE.INTRA.POLAR>
0

>  <SCORE.INTRA.POLAR.0>
0

>  <SCORE.INTRA.REPUL>
0

>  <SCORE.INTRA.REPUL.0>
0

>  <SCORE.INTRA.SOLV>
5.87465

>  <SCORE.INTRA.SOLV.lig_0>
-100.951

>  <SCORE.INTRA.VDW>
8.14847

>  <SCORE.INTRA.VDW.0>
-5.71388

>  <SCORE.INTRA.norm>
0.421613

>  <SCORE.RESTR>
9.7631

>  <SCORE.RESTR.CAVITY>
9.7631

>  <SCORE.RESTR.norm>
0.232455

>  <SCORE.SYSTEM>
0

>  <SCORE.SYSTEM.CONST>
0

>  <SCORE.SYSTEM.DIHEDRAL>
0

>  <SCORE.SYSTEM.SOLV>
0

>  <SCORE.SYSTEM.norm>
0

>  <SCORE.heavy>
42

>  <SCORE.norm>
0.536851

>  <RMSD>
11.740

$$$$
3c44_lig
 OpenBabel11021811463D
libRbt.so/2013.1/901 2013/11/27
 42 45  0  0  0  0  0  0  0  0999 V2000
   40.3364   39.9805   -5.2212 C   0  0  2  0  0  0  0  0  0  0  0  0
   38.9853   40.1390   -5.6809 O   0  0  0  0  0  0  0  0  0  0  0  0
   37.6389   38.3672   -9.1790 C   0  0  2  0  0  0  0  0  0  0  0  0
   37.1845   37.5522  -10.3162 N   0  0  0  0  0  0  0  0  0  0  0  0
   35.6860   40.2779   -5.1897 C   0  0  1  0  0  0  0  0  0  0  0  0
   34.7713   43.5657   -2.6470 C   0  0  1  0  0  0  0  0  0  0  0  0
   40.3182   39.3953   -3.8052 C   0  0  2  0  0  0  0  0  0  0  0  0
   39.5402   38.1487   -3.7633 N   0  0  0  0  0  0  0  0  0  0  0  0
   39.0251   37.9151   -8.7109 C   0  0  0  0  0  0  0  0  0  0  0  0
   36.6610   40.8074   -4.1370 C   0  0  2  0  0  0  0  0  0  0  0  0
   36.4321   40.1542   -2.8870 O   0  0  0  0  0  0  0  0  0  0  0  0
   35.5743   43.5207   -1.3428 C   0  0  2  0  0  0  0  0  0  0  0  0
   35.1439   42.3433   -0.5762 N   0  0  0  0  0  0  0  0  0  0  0  0
   39.7271   40.3873   -2.8004 C   0  0  1  0  0  0  0  0  0  0  0  0
   39.8763   39.8632   -1.4774 O   0  0  0  0  0  0  0  0  0  0  0  0
   39.4987   38.8996   -7.6364 C   0  0  2  0  0  0  0  0  0  0  0  0
   40.8035   38.4626   -7.1173 N   0  0  0  0  0  0  0  0  0  0  0  0
   36.1708   42.2504   -4.0355 C   0  0  2  0  0  0  0  0  0  0  0  0
   34.9125   42.3156   -3.3444 O   0  0  0  0  0  0  0  0  0  0  0  0
   35.3301   44.7783   -0.4985 C   0  0  1  0  0  0  0  0  0  0  0  0
   35.9436   45.9165   -1.1093 O   0  0  0  0  0  0  0  0  0  0  0  0
   40.4562   41.7281   -2.9043 C   0  0  2  0  0  0  0  0  0  0  0  0
   39.8301   42.6834   -2.0438 O   0  0  0  0  0  0  0  0  0  0  0  0
   38.5173   39.0275   -6.4646 C   0  0  2  0  0  0  0  0  0  0  0  0
   35.9609   42.5759   -5.5059 C   0  0  2  0  0  0  0  0  0  0  0  0
   35.6247   41.3355   -6.1645 O   0  0  0  0  0  0  0  0  0  0  0  0
   33.8336   45.0523   -0.3405 C   0  0  2  0  0  0  0  0  0  0  0  0
   33.2572   44.0198    0.4644 O   0  0  0  0  0  0  0  0  0  0  0  0
   40.4074   42.2267   -4.3494 C   0  0  2  0  0  0  0  0  0  0  0  0
   41.0049   41.2556   -5.2309 O   0  0  0  0  0  0  0  0  0  0  0  0
   37.0645   39.2425   -6.8838 C   0  0  2  0  0  0  0  0  0  0  0  0
   36.2084   39.0582   -5.7446 O   0  0  0  0  0  0  0  0  0  0  0  0
   37.2450   43.1748   -6.0838 C   0  0  0  0  0  0  0  0  0  0  0  0
   37.0744   43.3801   -7.4879 O   0  0  0  0  0  0  0  0  0  0  0  0
   33.1829   45.0762   -1.7261 C   0  0  1  0  0  0  0  0  0  0  0  0
   33.3854   43.7937   -2.3456 O   0  0  0  0  0  0  0  0  0  0  0  0
   41.1882   43.5419   -4.4133 C   0  0  0  0  0  0  0  0  0  0  0  0
   40.4921   44.5801   -3.6396 O   0  0  0  0  0  0  0  0  0  0  0  0
   36.6665   38.2703   -8.0007 C   0  0  1  0  0  0  0  0  0  0  0  0
   35.3345   38.5476   -8.4387 O   0  0  0  0  0  0  0  0  0  0  0  0
   31.6832   45.3667   -1.6564 C   0  0  0  0  0  0  0  0  0  0  0  0
   31.4799   46.7855   -1.3317 N   0  0  0  0  0  0  0  0  0  0  0  0
  1  2  1  1  0  0  0
  1  7  1  0  0  0  0
  1 30  1  0  0  0  0
  3  4  1  6  0  0  0
  3  9  1  0  0  0  0
  3 39  1  0  0  0  0
  5 10  1  0  0  0  0
  5 26  1  0  0  0  0
  5 32  1  6  0  0  0
  6 12  1  0  0  0  0
  6 36  1  0  0  0  0
  6 19  1  1  0  0  0
  7  8  1  6  0  0  0
  7 14  1  0  0  0  0
  9 16  1  0  0  0  0
 10 11  1  1  0  0  0
 10 18  1  0  0  0  0
 12 13  1  1  0  0  0
 12 20  1  0  0  0  0
 14 15  1  1  0  0  0
 14 22  1  0  0  0  0
 16 17  1  1  0  0  0
 16 24  1  0  0  0  0
 18 19  1  1  0  0  0
 18 25  1  0  0  0  0
 20 21  1  6  0  0  0
 20 27  1  0  0  0  0
 22 23  1  1  0  0  0
 22 29  1  0  0  0  0
 24  2  1  1  0  0  0
 24 31  1  0  0  0  0
 25 26  1  0  0  0  0
 25 33  1  6  0  0  0
 27 28  1  1  0  0  0
 27 35  1  0  0  0  0
 29 30  1  0  0  0  0
 29 37  1  1  0  0  0
 31 32  1  1  0  0  0
 31 39  1  0  0  0  0
 33 34  1  0  0  0  0
 35 36  1  0  0  0  0
 35 41  1  1  0  0  0
 37 38  1  0  0  0  0
 39 40  1  6  0  0  0
 41 42  1  0  0  0  0
M  END
>  <CHROM.1>
-94.98190106,-89.06483957,-78.76399091,150.22026502,-57.53614439,175.49433311
-66.56305729,104.98351334,73.32759639,37.12122689,41.59014193,-4.30897301
-1.02678307,-0.20338186,0.92154708

>  <Name>
3c44_lig

>  <RI>
0

>  <Rbt.Current_Directory>
/home/itssahil/PROJECTS/Mol_Feturizer/New_Systems/rnas/3c44

>  <Rbt.Executable>
rbdock ($Id: //depot/dev/client3/rdock/2013.1/src/exe/rbdock.cxx#4 $)

>  <Rbt.Library>
libRbt.so (2013.1, Build901 2013/11/27)

>  <Rbt.Parameter_File>
/export/apps/rDock/src/rDock_2013.1_src/data/scripts/dock_solv.prm

>  <Rbt.Receptor>
prm/blind_docking_100.prm

>  <SCORE>
15.9243

>  <SCORE.INTER>
-1.08593

>  <SCORE.INTER.CONST>
1

>  <SCORE.INTER.POLAR>
-1.44867

>  <SCORE.INTER.ROT>
9

>  <SCORE.INTER.SOLV>
27.7198

>  <SCORE.INTER.VDW>
-14.735

>  <SCORE.INTER.norm>
-0.0258554

>  <SCORE.INTRA>
7.0369

>  <SCORE.INTRA.DIHEDRAL>
5.34652

>  <SCORE.INTRA.DIHEDRAL.0>
14.8538

>  <SCORE.INTRA.POLAR>
0

>  <SCORE.INTRA.POLAR.0>
0

>  <SCORE.INTRA.REPUL>
0

>  <SCORE.INTRA.REPUL.0>
0

>  <SCORE.INTRA.SOLV>
1.38867

>  <SCORE.INTRA.SOLV.lig_0>
-100.951

>  <SCORE.INTRA.VDW>
3.66931

>  <SCORE.INTRA.VDW.0>
-5.71388

>  <SCORE.INTRA.norm>
0.167545

>  <SCORE.RESTR>
9.97331

>  <SCORE.RESTR.CAVITY>
9.97331

>  <SCORE.RESTR.norm>
0.23746

>  <SCORE.SYSTEM>
0

>  <SCORE.SYSTEM.CONST>
0

>  <SCORE.SYSTEM.DIHEDRAL>
0

>  <SCORE.SYSTEM.SOLV>
0

>  <SCORE.SYSTEM.norm>
0

>  <SCORE.heavy>
42

>  <SCORE.norm>
0.37915

>  <RMSD>
11.742

$$$$
3c44_lig
 OpenBabel11021811463D
libRbt.so/2013.1/901 2013/11/27
 42 45  0  0  0  0  0  0  0  0999 V2000
   36.8653   42.9456   -3.6353 C   0  0  2  0  0  0  0  0  0  0  0  0
   38.1606   43.0881   -3.0323 O   0  0  0  0  0  0  0  0  0  0  0  0
   41.4320   40.5603   -2.7204 C   0  0  2  0  0  0  0  0  0  0  0  0
   42.4586   39.5276   -2.5116 N   0  0  0  0  0  0  0  0  0  0  0  0
   37.8330   41.6238   -5.8361 C   0  0  1  0  0  0  0  0  0  0  0  0
   38.0852   44.3667   -9.0667 C   0  0  1  0  0  0  0  0  0  0  0  0
   36.2882   44.3369   -3.9169 C   0  0  2  0  0  0  0  0  0  0  0  0
   37.2202   45.1371   -4.7244 N   0  0  0  0  0  0  0  0  0  0  0  0
   40.7791   40.9487   -1.3907 C   0  0  0  0  0  0  0  0  0  0  0  0
   38.7862   41.5663   -7.0307 C   0  0  2  0  0  0  0  0  0  0  0  0
   39.9153   42.4097   -6.7953 O   0  0  0  0  0  0  0  0  0  0  0  0
   39.2903   43.7347   -9.7709 C   0  0  2  0  0  0  0  0  0  0  0  0
   40.3970   43.6528   -8.8077 N   0  0  0  0  0  0  0  0  0  0  0  0
   35.9823   45.0861   -2.6176 C   0  0  1  0  0  0  0  0  0  0  0  0
   35.3026   46.3068   -2.9264 O   0  0  0  0  0  0  0  0  0  0  0  0
   39.8397   42.1291   -1.6595 C   0  0  2  0  0  0  0  0  0  0  0  0
   39.1461   42.4921   -0.4145 N   0  0  0  0  0  0  0  0  0  0  0  0
   37.9026   42.2124   -8.0959 C   0  0  2  0  0  0  0  0  0  0  0  0
   37.7818   43.6266   -7.8711 O   0  0  0  0  0  0  0  0  0  0  0  0
   39.7380   44.5815  -10.9695 C   0  0  1  0  0  0  0  0  0  0  0  0
   38.7798   44.4951  -12.0274 O   0  0  0  0  0  0  0  0  0  0  0  0
   35.0980   44.2225   -1.7162 C   0  0  2  0  0  0  0  0  0  0  0  0
   34.9057   44.8791   -0.4605 O   0  0  0  0  0  0  0  0  0  0  0  0
   38.7932   41.8298   -2.7401 C   0  0  2  0  0  0  0  0  0  0  0  0
   36.5734   41.5353   -7.8013 C   0  0  2  0  0  0  0  0  0  0  0  0
   36.5637   41.2302   -6.3899 O   0  0  0  0  0  0  0  0  0  0  0  0
   39.9026   46.0499  -10.5742 C   0  0  2  0  0  0  0  0  0  0  0  0
   41.0122   46.1659   -9.6789 O   0  0  0  0  0  0  0  0  0  0  0  0
   35.7671   42.8658   -1.4909 C   0  0  2  0  0  0  0  0  0  0  0  0
   35.9977   42.2094   -2.7531 O   0  0  0  0  0  0  0  0  0  0  0  0
   39.3657   41.2104   -4.0134 C   0  0  2  0  0  0  0  0  0  0  0  0
   38.2902   40.7097   -4.8241 O   0  0  0  0  0  0  0  0  0  0  0  0
   36.4534   40.2610   -8.6400 C   0  0  0  0  0  0  0  0  0  0  0  0
   36.5235   40.6051  -10.0256 O   0  0  0  0  0  0  0  0  0  0  0  0
   38.6164   46.5303   -9.8967 C   0  0  1  0  0  0  0  0  0  0  0  0
   38.3930   45.7274   -8.7242 O   0  0  0  0  0  0  0  0  0  0  0  0
   34.8266   42.0222   -0.6265 C   0  0  0  0  0  0  0  0  0  0  0  0
   33.4272   42.3331   -0.9522 O   0  0  0  0  0  0  0  0  0  0  0  0
   40.3422   40.0762   -3.6801 C   0  0  1  0  0  0  0  0  0  0  0  0
   40.9328   39.5712   -4.8798 O   0  0  0  0  0  0  0  0  0  0  0  0
   38.6921   48.0019   -9.4882 C   0  0  0  0  0  0  0  0  0  0  0  0
   37.7503   48.2473   -8.3871 N   0  0  0  0  0  0  0  0  0  0  0  0
  1  2  1  1  0  0  0
  1  7  1  0  0  0  0
  1 30  1  0  0  0  0
  3  4  1  1  0  0  0
  3  9  1  0  0  0  0
  3 39  1  0  0  0  0
  5 10  1  0  0  0  0
  5 26  1  0  0  0  0
  5 32  1  1  0  0  0
  6 12  1  0  0  0  0
  6 36  1  0  0  0  0
  6 19  1  1  0  0  0
  7  8  1  6  0  0  0
  7 14  1  0  0  0  0
  9 16  1  0  0  0  0
 10 11  1  1  0  0  0
 10 18  1  0  0  0  0
 12 13  1  1  0  0  0
 12 20  1  0  0  0  0
 14 15  1  6  0  0  0
 14 22  1  0  0  0  0
 16 17  1  1  0  0  0
 16 24  1  0  0  0  0
 18 19  1  1  0  0  0
 18 25  1  0  0  0  0
 20 21  1  6  0  0  0
 20 27  1  0  0  0  0
 22 23  1  1  0  0  0
 22 29  1  0  0  0  0
 24  2  1  6  0  0  0
 24 31  1  0  0  0  0
 25 26  1  0  0  0  0
 25 33  1  6  0  0  0
 27 28  1  1  0  0  0
 27 35  1  0  0  0  0
 29 30  1  0  0  0  0
 29 37  1  1  0  0  0
 31 32  1  6  0  0  0
 31 39  1  0  0  0  0
 33 34  1  0  0  0  0
 35 36  1  0  0  0  0
 35 41  1  1  0  0  0
 37 38  1  0  0  0  0
 39 40  1  6  0  0  0
 41 42  1  0  0  0  0
M  END
>  <CHROM.1>
-179.44381358,80.07996087,-40.93358611,128.88386482,-158.63528109,-59.90356174
34.14378496,94.86356897,-155.88529047,38.07116168,43.12357107,-5.57000071
1.85334066,-0.80046166,2.07212052

>  <Name>
3c44_lig

>  <RI>
0

>  <Rbt.Current_Directory>
/home/itssahil/PROJECTS/Mol_Feturizer/New_Systems/rnas/3c44

>  <Rbt.Executable>
rbdock ($Id: //depot/dev/client3/rdock/2013.1/src/exe/rbdock.cxx#4 $)

>  <Rbt.Library>
libRbt.so (2013.1, Build901 2013/11/27)

>  <Rbt.Parameter_File>
/export/apps/rDock/src/rDock_2013.1_src/data/scripts/dock_solv.prm

>  <Rbt.Receptor>
prm/blind_docking_80.prm

>  <SCORE>
11.1767

>  <SCORE.INTER>
-5.32832

>  <SCORE.INTER.CONST>
1

>  <SCORE.INTER.POLAR>
-0.301824

>  <SCORE.INTER.ROT>
9

>  <SCORE.INTER.SOLV>
26.7188

>  <SCORE.INTER.VDW>
-21.0524

>  <SCORE.INTER.norm>
-0.126865

>  <SCORE.INTRA>
10.3138

>  <SCORE.INTRA.DIHEDRAL>
5.67286

>  <SCORE.INTRA.DIHEDRAL.0>
14.8538

>  <SCORE.INTRA.POLAR>
0

>  <SCORE.INTRA.POLAR.0>
0

>  <SCORE.INTRA.REPUL>
0.168665

>  <SCORE.INTRA.REPUL.0>
0

>  <SCORE.INTRA.SOLV>
0.328642

>  <SCORE.INTRA.SOLV.lig_0>
-100.951

>  <SCORE.INTRA.VDW>
6.46976

>  <SCORE.INTRA.VDW.0>
-5.71388

>  <SCORE.INTRA.norm>
0.245568

>  <SCORE.RESTR>
6.19117

>  <SCORE.RESTR.CAVITY>
6.19117

>  <SCORE.RESTR.norm>
0.147409

>  <SCORE.SYSTEM>
0

>  <SCORE.SYSTEM.CONST>
0

>  <SCORE.SYSTEM.DIHEDRAL>
0

>  <SCORE.SYSTEM.SOLV>
0

>  <SCORE.SYSTEM.norm>
0

>  <SCORE.heavy>
42

>  <SCORE.norm>
0.266112

>  <RMSD>
11.745

$$$$
3c44_lig
 OpenBabel11021811463D
libRbt.so/2013.1/901 2013/11/27
 42 45  0  0  0  0  0  0  0  0999 V2000
   36.3202   40.8794   -0.8302 C   0  0  2  0  0  0  0  0  0  0  0  0
   35.4062   41.6144   -1.6586 O   0  0  0  0  0  0  0  0  0  0  0  0
   34.1172   45.5107   -2.2470 C   0  0  2  0  0  0  0  0  0  0  0  0
   33.7900   46.9442   -2.2928 N   0  0  0  0  0  0  0  0  0  0  0  0
   37.6756   43.7095   -4.3255 C   0  0  1  0  0  0  0  0  0  0  0  0
   38.6502   44.3229   -7.9303 C   0  0  1  0  0  0  0  0  0  0  0  0
   36.6614   39.5523   -1.5160 C   0  0  2  0  0  0  0  0  0  0  0  0
   37.1663   39.7807   -2.8776 N   0  0  0  0  0  0  0  0  0  0  0  0
   33.8591   44.9427   -0.8484 C   0  0  0  0  0  0  0  0  0  0  0  0
   38.8129   42.7345   -4.6338 C   0  0  2  0  0  0  0  0  0  0  0  0
   40.0599   43.2896   -4.2111 O   0  0  0  0  0  0  0  0  0  0  0  0
   38.8120   43.1566   -8.9108 C   0  0  2  0  0  0  0  0  0  0  0  0
   40.2414   42.8300   -9.0075 N   0  0  0  0  0  0  0  0  0  0  0  0
   35.4411   38.6307   -1.5836 C   0  0  1  0  0  0  0  0  0  0  0  0
   35.8434   37.3521   -2.0841 O   0  0  0  0  0  0  0  0  0  0  0  0
   34.0696   43.4264   -0.9146 C   0  0  2  0  0  0  0  0  0  0  0  0
   33.8900   42.8514    0.4271 N   0  0  0  0  0  0  0  0  0  0  0  0
   38.7588   42.7509   -6.1601 C   0  0  2  0  0  0  0  0  0  0  0  0
   39.2720   43.9898   -6.6767 O   0  0  0  0  0  0  0  0  0  0  0  0
   38.2933   43.5298  -10.3057 C   0  0  1  0  0  0  0  0  0  0  0  0
   36.8668   43.6296  -10.2976 O   0  0  0  0  0  0  0  0  0  0  0  0
   34.8368   38.4662   -0.1879 C   0  0  2  0  0  0  0  0  0  0  0  0
   33.6352   37.6955   -0.2723 O   0  0  0  0  0  0  0  0  0  0  0  0
   35.4566   43.0350   -1.4393 C   0  0  2  0  0  0  0  0  0  0  0  0
   37.2562   42.6897   -6.3848 C   0  0  2  0  0  0  0  0  0  0  0  0
   36.6374   43.3292   -5.2475 O   0  0  0  0  0  0  0  0  0  0  0  0
   38.8767   44.8654  -10.7699 C   0  0  2  0  0  0  0  0  0  0  0  0
   40.2805   44.7041  -10.9923 O   0  0  0  0  0  0  0  0  0  0  0  0
   34.5252   39.8431    0.4006 C   0  0  2  0  0  0  0  0  0  0  0  0
   35.7235   40.6419    0.4584 O   0  0  0  0  0  0  0  0  0  0  0  0
   35.8707   43.7594   -2.7186 C   0  0  2  0  0  0  0  0  0  0  0  0
   37.2715   43.5440   -2.9551 O   0  0  0  0  0  0  0  0  0  0  0  0
   36.8170   41.2285   -6.5003 C   0  0  0  0  0  0  0  0  0  0  0  0
   35.4192   41.1825   -6.7951 O   0  0  0  0  0  0  0  0  0  0  0  0
   38.6242   45.9211   -9.6902 C   0  0  1  0  0  0  0  0  0  0  0  0
   39.2722   45.4960   -8.4783 O   0  0  0  0  0  0  0  0  0  0  0  0
   33.9697   39.6303    1.8111 C   0  0  0  0  0  0  0  0  0  0  0  0
   34.9678   38.9504    2.6492 O   0  0  0  0  0  0  0  0  0  0  0  0
   35.5819   45.2618   -2.6158 C   0  0  1  0  0  0  0  0  0  0  0  0
   35.8931   45.9053   -3.8535 O   0  0  0  0  0  0  0  0  0  0  0  0
   39.1611   47.2964  -10.0885 C   0  0  0  0  0  0  0  0  0  0  0  0
   40.5998   47.1914  -10.3692 N   0  0  0  0  0  0  0  0  0  0  0  0
  1  2  1  6  0  0  0
  1  7  1  0  0  0  0
  1 30  1  0  0  0  0
  3  4  1  1  0  0  0
  3  9  1  0  0  0  0
  3 39  1  0  0  0  0
  5 10  1  0  0  0  0
  5 26  1  0  0  0  0
  5 32  1  1  0  0  0
  6 12  1  0  0  0  0
  6 36  1  0  0  0  0
  6 19  1  1  0  0  0
  7  8  1  6  0  0  0
  7 14  1  0  0  0  0
  9 16  1  0  0  0  0
 10 11  1  6  0  0  0
 10 18  1  0  0  0  0
 12 13  1  6  0  0  0
 12 20  1  0  0  0  0
 14 15  1  1  0  0  0
 14 22  1  0  0  0  0
 16 17  1  1  0  0  0
 16 24  1  0  0  0  0
 18 19  1  1  0  0  0
 18 25  1  0  0  0  0
 20 21  1  1  0  0  0
 20 27  1  0  0  0  0
 22 23  1  6  0  0  0
 22 29  1  0  0  0  0
 24  2  1  6  0  0  0
 24 31  1  0  0  0  0
 25 26  1  0  0  0  0
 25 33  1  1  0  0  0
 27 28  1  1  0  0  0
 27 35  1  0  0  0  0
 29 30  1  0  0  0  0
 29 37  1  1  0  0  0
 31 32  1  1  0  0  0
 31 39  1  0  0  0  0
 33 34  1  0  0  0  0
 35 36  1  0  0  0  0
 35 41  1  6  0  0  0
 37 38  1  0  0  0  0
 39 40  1  6  0  0  0
 41 42  1  0  0  0  0
M  END
>  <CHROM.1>
-154.98442852,-146.60489852,-54.64732951,-150.73687889,-116.99413111,-176.38801307
60.59414117,157.17423884,-57.46349775,36.78382429,42.73973119,-4.35338823
-2.47084440,1.06729183,-0.28449726

>  <Name>
3c44_lig

>  <RI>
0

>  <Rbt.Current_Directory>
/home/itssahil/PROJECTS/Mol_Feturizer/New_Systems/rnas/3c44

>  <Rbt.Executable>
rbdock ($Id: //depot/dev/client3/rdock/2013.1/src/exe/rbdock.cxx#4 $)

>  <Rbt.Library>
libRbt.so (2013.1, Build901 2013/11/27)

>  <Rbt.Parameter_File>
/export/apps/rDock/src/rDock_2013.1_src/data/scripts/dock_solv.prm

>  <Rbt.Receptor>
prm/blind_docking_80.prm

>  <SCORE>
15.5352

>  <SCORE.INTER>
1.00937

>  <SCORE.INTER.CONST>
1

>  <SCORE.INTER.POLAR>
0

>  <SCORE.INTER.ROT>
9

>  <SCORE.INTER.SOLV>
20.2107

>  <SCORE.INTER.VDW>
-15.664

>  <SCORE.INTER.norm>
0.0240327

>  <SCORE.INTRA>
8.99284

>  <SCORE.INTRA.DIHEDRAL>
5.11651

>  <SCORE.INTRA.DIHEDRAL.0>
14.8538

>  <SCORE.INTRA.POLAR>
0

>  <SCORE.INTRA.POLAR.0>
0

>  <SCORE.INTRA.REPUL>
0

>  <SCORE.INTRA.REPUL.0>
0

>  <SCORE.INTRA.SOLV>
1.78173

>  <SCORE.INTRA.SOLV.lig_0>
-100.951

>  <SCORE.INTRA.VDW>
5.54372

>  <SCORE.INTRA.VDW.0>
-5.71388

>  <SCORE.INTRA.norm>
0.214115

>  <SCORE.RESTR>
5.53301

>  <SCORE.RESTR.CAVITY>
5.53301

>  <SCORE.RESTR.norm>
0.131738

>  <SCORE.SYSTEM>
0

>  <SCORE.SYSTEM.CONST>
0

>  <SCORE.SYSTEM.DIHEDRAL>
0

>  <SCORE.SYSTEM.SOLV>
0

>  <SCORE.SYSTEM.norm>
0

>  <SCORE.heavy>
42

>  <SCORE.norm>
0.369886

>  <RMSD>
11.752

$$$$
3c44_lig
 OpenBabel11021811463D
libRbt.so/2013.1/901 2013/11/27
 42 45  0  0  0  0  0  0  0  0999 V2000
   39.4902   44.2933   -7.3391 C   0  0  2  0  0  0  0  0  0  0  0  0
   38.1321   44.0127   -6.9668 O   0  0  0  0  0  0  0  0  0  0  0  0
   37.5155   48.1126   -6.9584 C   0  0  2  0  0  0  0  0  0  0  0  0
   37.0911   49.5204   -6.9152 N   0  0  0  0  0  0  0  0  0  0  0  0
   36.7485   44.3005   -4.4202 C   0  0  1  0  0  0  0  0  0  0  0  0
   35.6909   40.3366   -5.1077 C   0  0  1  0  0  0  0  0  0  0  0  0
   39.7556   43.7196   -8.7350 C   0  0  2  0  0  0  0  0  0  0  0  0
   38.7716   44.2231   -9.7041 N   0  0  0  0  0  0  0  0  0  0  0  0
   36.6891   47.3311   -7.9838 C   0  0  0  0  0  0  0  0  0  0  0  0
   37.4189   43.0071   -3.9546 C   0  0  2  0  0  0  0  0  0  0  0  0
   38.1452   42.4174   -5.0347 O   0  0  0  0  0  0  0  0  0  0  0  0
   36.5109   39.7297   -3.9644 C   0  0  2  0  0  0  0  0  0  0  0  0
   37.7822   40.4605   -3.8699 N   0  0  0  0  0  0  0  0  0  0  0  0
   39.7103   42.1896   -8.7259 C   0  0  1  0  0  0  0  0  0  0  0  0
   40.1181   41.6985  -10.0064 O   0  0  0  0  0  0  0  0  0  0  0  0
   37.2848   45.9231   -8.0876 C   0  0  2  0  0  0  0  0  0  0  0  0
   36.4782   45.1212   -9.0200 N   0  0  0  0  0  0  0  0  0  0  0  0
   36.1784   42.1608   -3.6755 C   0  0  2  0  0  0  0  0  0  0  0  0
   35.5506   41.7533   -4.9023 O   0  0  0  0  0  0  0  0  0  0  0  0
   36.8094   38.2471   -4.2233 C   0  0  1  0  0  0  0  0  0  0  0  0
   35.6175   37.4678   -4.0928 O   0  0  0  0  0  0  0  0  0  0  0  0
   40.6513   41.6488   -7.6477 C   0  0  2  0  0  0  0  0  0  0  0  0
   40.5238   40.2267   -7.5681 O   0  0  0  0  0  0  0  0  0  0  0  0
   37.3490   45.1973   -6.7379 C   0  0  2  0  0  0  0  0  0  0  0  0
   35.2999   43.1813   -2.9692 C   0  0  2  0  0  0  0  0  0  0  0  0
   35.6617   44.4776   -3.4928 O   0  0  0  0  0  0  0  0  0  0  0  0
   37.3818   38.0386   -5.6263 C   0  0  2  0  0  0  0  0  0  0  0  0
   38.6811   38.6335   -5.6885 O   0  0  0  0  0  0  0  0  0  0  0  0
   40.2963   42.2742   -6.2979 C   0  0  2  0  0  0  0  0  0  0  0  0
   40.3876   43.7104   -6.3759 O   0  0  0  0  0  0  0  0  0  0  0  0
   37.9529   46.0276   -5.6072 C   0  0  2  0  0  0  0  0  0  0  0  0
   37.7010   45.3760   -4.3516 O   0  0  0  0  0  0  0  0  0  0  0  0
   35.5466   43.1093   -1.4607 C   0  0  0  0  0  0  0  0  0  0  0  0
   34.5556   43.8887   -0.7873 O   0  0  0  0  0  0  0  0  0  0  0  0
   36.4458   38.6902   -6.6477 C   0  0  1  0  0  0  0  0  0  0  0  0
   36.3615   40.0961   -6.3550 O   0  0  0  0  0  0  0  0  0  0  0  0
   41.2914   41.7419   -5.2635 C   0  0  0  0  0  0  0  0  0  0  0  0
   40.9179   42.2050   -3.9193 O   0  0  0  0  0  0  0  0  0  0  0  0
   37.3625   47.4426   -5.5906 C   0  0  1  0  0  0  0  0  0  0  0  0
   38.0045   48.2285   -4.5840 O   0  0  0  0  0  0  0  0  0  0  0  0
   36.9385   38.5070   -8.0837 C   0  0  0  0  0  0  0  0  0  0  0  0
   35.9952   39.1555   -9.0053 N   0  0  0  0  0  0  0  0  0  0  0  0
  1  2  1  1  0  0  0
  1  7  1  0  0  0  0
  1 30  1  0  0  0  0
  3  4  1  1  0  0  0
  3  9  1  0  0  0  0
  3 39  1  0  0  0  0
  5 10  1  0  0  0  0
  5 26  1  0  0  0  0
  5 32  1  1  0  0  0
  6 12  1  0  0  0  0
  6 36  1  0  0  0  0
  6 19  1  1  0  0  0
  7  8  1  6  0  0  0
  7 14  1  0  0  0  0
  9 16  1  0  0  0  0
 10 11  1  6  0  0  0
 10 18  1  0  0  0  0
 12 13  1  6  0  0  0
 12 20  1  0  0  0  0
 14 15  1  6  0  0  0
 14 22  1  0  0  0  0
 16 17  1  6  0  0  0
 16 24  1  0  0  0  0
 18 19  1  6  0  0  0
 18 25  1  0  0  0  0
 20 21  1  6  0  0  0
 20 27  1  0  0  0  0
 22 23  1  1  0  0  0
 22 29  1  0  0  0  0
 24  2  1  6  0  0  0
 24 31  1  0  0  0  0
 25 26  1  0  0  0  0
 25 33  1  1  0  0  0
 27 28  1  1  0  0  0
 27 35  1  0  0  0  0
 29 30  1  0  0  0  0
 29 37  1  1  0  0  0
 31 32  1  1  0  0  0
 31 39  1  0  0  0  0
 33 34  1  0  0  0  0
 35 36  1  0  0  0  0
 35 41  1  6  0  0  0
 37 38  1  0  0  0  0
 39 40  1  1  0  0  0
 41 42  1  0  0  0  0
M  END
>  <CHROM.1>
-118.81321429,120.54961650,-1.88732855,111.01374285,63.90332607,-169.61423039
-174.40635095,-11.92702651,-179.98403139,37.69507749,42.78772476,-5.87012655
-1.47776900,-0.99213086,3.11111906

>  <Name>
3c44_lig

>  <RI>
0

>  <Rbt.Current_Directory>
/home/itssahil/PROJECTS/Mol_Feturizer/New_Systems/rnas/3c44

>  <Rbt.Executable>
rbdock ($Id: //depot/dev/client3/rdock/2013.1/src/exe/rbdock.cxx#4 $)

>  <Rbt.Library>
libRbt.so (2013.1, Build901 2013/11/27)

>  <Rbt.Parameter_File>
/export/apps/rDock/src/rDock_2013.1_src/data/scripts/dock_solv.prm

>  <Rbt.Receptor>
prm/blind_docking_80.prm

>  <SCORE>
61.2324

>  <SCORE.INTER>
19.2934

>  <SCORE.INTER.CONST>
1

>  <SCORE.INTER.POLAR>
-0.121566

>  <SCORE.INTER.ROT>
9

>  <SCORE.INTER.SOLV>
23.0239

>  <SCORE.INTER.VDW>
-4.00713

>  <SCORE.INTER.norm>
0.459368

>  <SCORE.INTRA>
37.6904

>  <SCORE.INTRA.DIHEDRAL>
20.2755

>  <SCORE.INTRA.DIHEDRAL.0>
14.8538

>  <SCORE.INTRA.POLAR>
0

>  <SCORE.INTRA.POLAR.0>
0

>  <SCORE.INTRA.REPUL>
0.239347

>  <SCORE.INTRA.REPUL.0>
0

>  <SCORE.INTRA.SOLV>
5.71064

>  <SCORE.INTRA.SOLV.lig_0>
-100.951

>  <SCORE.INTRA.VDW>
23.5005

>  <SCORE.INTRA.VDW.0>
-5.71388

>  <SCORE.INTRA.norm>
0.89739

>  <SCORE.RESTR>
4.24858

>  <SCORE.RESTR.CAVITY>
4.24858

>  <SCORE.RESTR.norm>
0.101157

>  <SCORE.SYSTEM>
0

>  <SCORE.SYSTEM.CONST>
0

>  <SCORE.SYSTEM.DIHEDRAL>
0

>  <SCORE.SYSTEM.SOLV>
0

>  <SCORE.SYSTEM.norm>
0

>  <SCORE.heavy>
42

>  <SCORE.norm>
1.45791

>  <RMSD>
11.756

$$$$
3c44_lig
 OpenBabel11021811463D
libRbt.so/2013.1/901 2013/11/27
 42 45  0  0  0  0  0  0  0  0999 V2000
   39.3931   44.0794   -7.0042 C   0  0  2  0  0  0  0  0  0  0  0  0
   38.0122   43.8914   -6.6583 O   0  0  0  0  0  0  0  0  0  0  0  0
   37.5997   48.0045   -6.9784 C   0  0  2  0  0  0  0  0  0  0  0  0
   37.2440   49.4295   -7.0588 N   0  0  0  0  0  0  0  0  0  0  0  0
   36.4542   44.5090   -4.1988 C   0  0  1  0  0  0  0  0  0  0  0  0
   35.7683   41.2345   -5.3899 C   0  0  1  0  0  0  0  0  0  0  0  0
   39.6845   43.3462   -8.3178 C   0  0  2  0  0  0  0  0  0  0  0  0
   38.7571   43.7757   -9.3745 N   0  0  0  0  0  0  0  0  0  0  0  0
   36.7840   47.1871   -7.9843 C   0  0  0  0  0  0  0  0  0  0  0  0
   36.9712   43.1613   -3.6932 C   0  0  2  0  0  0  0  0  0  0  0  0
   37.6108   42.4536   -4.7571 O   0  0  0  0  0  0  0  0  0  0  0  0
   34.8832   40.4963   -6.3996 C   0  0  2  0  0  0  0  0  0  0  0  0
   33.8069   39.8203   -5.6622 N   0  0  0  0  0  0  0  0  0  0  0  0
   39.5766   41.8292   -8.1445 C   0  0  1  0  0  0  0  0  0  0  0  0
   40.0095   41.1855   -9.3468 O   0  0  0  0  0  0  0  0  0  0  0  0
   37.3135   45.7494   -7.9557 C   0  0  2  0  0  0  0  0  0  0  0  0
   36.5123   44.9178   -8.8665 N   0  0  0  0  0  0  0  0  0  0  0  0
   35.6422   42.4785   -3.3768 C   0  0  2  0  0  0  0  0  0  0  0  0
   34.9573   42.1077   -4.5845 O   0  0  0  0  0  0  0  0  0  0  0  0
   35.6872   39.4459   -7.1769 C   0  0  1  0  0  0  0  0  0  0  0  0
   36.5929   40.0808   -8.0833 O   0  0  0  0  0  0  0  0  0  0  0  0
   40.4556   41.3762   -6.9772 C   0  0  2  0  0  0  0  0  0  0  0  0
   40.2674   39.9772   -6.7488 O   0  0  0  0  0  0  0  0  0  0  0  0
   37.2789   45.1246   -6.5554 C   0  0  2  0  0  0  0  0  0  0  0  0
   34.8986   43.6194   -2.7003 C   0  0  2  0  0  0  0  0  0  0  0  0
   35.4061   44.8451   -3.2708 O   0  0  0  0  0  0  0  0  0  0  0  0
   36.4875   38.5529   -6.2273 C   0  0  2  0  0  0  0  0  0  0  0  0
   35.5770   37.7507   -5.4700 O   0  0  0  0  0  0  0  0  0  0  0  0
   40.0784   42.1589   -5.7185 C   0  0  2  0  0  0  0  0  0  0  0  0
   40.2310   43.5735   -5.9483 O   0  0  0  0  0  0  0  0  0  0  0  0
   37.8701   46.0087   -5.4592 C   0  0  2  0  0  0  0  0  0  0  0  0
   37.5283   45.4652   -4.1737 O   0  0  0  0  0  0  0  0  0  0  0  0
   35.1512   43.5692   -1.1919 C   0  0  0  0  0  0  0  0  0  0  0  0
   34.4826   42.4310   -0.6437 O   0  0  0  0  0  0  0  0  0  0  0  0
   37.3220   39.4373   -5.2972 C   0  0  1  0  0  0  0  0  0  0  0  0
   36.4283   40.2776   -4.5459 O   0  0  0  0  0  0  0  0  0  0  0  0
   41.0134   41.7076   -4.5936 C   0  0  0  0  0  0  0  0  0  0  0  0
   40.6930   42.4269   -3.3522 O   0  0  0  0  0  0  0  0  0  0  0  0
   37.3504   47.4466   -5.5749 C   0  0  1  0  0  0  0  0  0  0  0  0
   37.9831   48.2753   -4.5972 O   0  0  0  0  0  0  0  0  0  0  0  0
   38.1715   38.6165   -4.3261 C   0  0  0  0  0  0  0  0  0  0  0  0
   38.9152   39.5275   -3.4448 N   0  0  0  0  0  0  0  0  0  0  0  0
  1  2  1  1  0  0  0
  1  7  1  0  0  0  0
  1 30  1  0  0  0  0
  3  4  1  1  0  0  0
  3  9  1  0  0  0  0
  3 39  1  0  0  0  0
  5 10  1  0  0  0  0
  5 26  1  0  0  0  0
  5 32  1  1  0  0  0
  6 12  1  0  0  0  0
  6 36  1  0  0  0  0
  6 19  1  1  0  0  0
  7  8  1  6  0  0  0
  7 14  1  0  0  0  0
  9 16  1  0  0  0  0
 10 11  1  6  0  0  0
 10 18  1  0  0  0  0
 12 13  1  1  0  0  0
 12 20  1  0  0  0  0
 14 15  1  6  0  0  0
 14 22  1  0  0  0  0
 16 17  1  6  0  0  0
 16 24  1  0  0  0  0
 18 19  1  6  0  0  0
 18 25  1  0  0  0  0
 20 21  1  6  0  0  0
 20 27  1  0  0  0  0
 22 23  1  1  0  0  0
 22 29  1  0  0  0  0
 24  2  1  6  0  0  0
 24 31  1  0  0  0  0
 25 26  1  0  0  0  0
 25 33  1  1  0  0  0
 27 28  1  1  0  0  0
 27 35  1  0  0  0  0
 29 30  1  0  0  0  0
 29 37  1  1  0  0  0
 31 32  1  1  0  0  0
 31 39  1  0  0  0  0
 33 34  1  0  0  0  0
 35 36  1  0  0  0  0
 35 41  1  1  0  0  0
 37 38  1  0  0  0  0
 39 40  1  1  0  0  0
 41 42  1  0  0  0  0
M  END
>  <CHROM.1>
-120.39837774,118.70037608,161.32286571,57.95896877,62.89618945,-69.83887253
-179.82741905,-16.61062531,-178.52025398,37.45519384,42.86503738,-5.62958708
-1.41742759,-0.88495244,3.12047272

>  <Name>
3c44_lig

>  <RI>
0

>  <Rbt.Current_Directory>
/home/itssahil/PROJECTS/Mol_Feturizer/New_Systems/rnas/3c44

>  <Rbt.Executable>
rbdock ($Id: //depot/dev/client3/rdock/2013.1/src/exe/rbdock.cxx#4 $)

>  <Rbt.Library>
libRbt.so (2013.1, Build901 2013/11/27)

>  <Rbt.Parameter_File>
/export/apps/rDock/src/rDock_2013.1_src/data/scripts/dock_solv.prm

>  <Rbt.Receptor>
prm/blind_docking_80.prm

>  <SCORE>
21.2759

>  <SCORE.INTER>
-2.99856

>  <SCORE.INTER.CONST>
1

>  <SCORE.INTER.POLAR>
0

>  <SCORE.INTER.ROT>
9

>  <SCORE.INTER.SOLV>
25.0853

>  <SCORE.INTER.VDW>
-19.9608

>  <SCORE.INTER.norm>
-0.0713942

>  <SCORE.INTRA>
20.8492

>  <SCORE.INTRA.DIHEDRAL>
7.74154

>  <SCORE.INTRA.DIHEDRAL.0>
14.8538

>  <SCORE.INTRA.POLAR>
0

>  <SCORE.INTRA.POLAR.0>
0

>  <SCORE.INTRA.REPUL>
0

>  <SCORE.INTRA.REPUL.0>
0

>  <SCORE.INTRA.SOLV>
5.65355

>  <SCORE.INTRA.SOLV.lig_0>
-100.951

>  <SCORE.INTRA.VDW>
14.1516

>  <SCORE.INTRA.VDW.0>
-5.71388

>  <SCORE.INTRA.norm>
0.496409

>  <SCORE.RESTR>
3.42522

>  <SCORE.RESTR.CAVITY>
3.42522

>  <SCORE.RESTR.norm>
0.0815528

>  <SCORE.SYSTEM>
0

>  <SCORE.SYSTEM.CONST>
0

>  <SCORE.SYSTEM.DIHEDRAL>
0

>  <SCORE.SYSTEM.SOLV>
0

>  <SCORE.SYSTEM.norm>
0

>  <SCORE.heavy>
42

>  <SCORE.norm>
0.506568

>  <RMSD>
11.772

$$$$
3c44_lig
 OpenBabel11021811463D
libRbt.so/2013.1/901 2013/11/27
 42 45  0  0  0  0  0  0  0  0999 V2000
   36.8936   43.6562   -3.4232 C   0  0  2  0  0  0  0  0  0  0  0  0
   36.0209   43.0304   -4.3764 O   0  0  0  0  0  0  0  0  0  0  0  0
   35.7675   38.9376   -4.9882 C   0  0  2  0  0  0  0  0  0  0  0  0
   35.8506   37.5093   -5.3302 N   0  0  0  0  0  0  0  0  0  0  0  0
   39.1196   41.5055   -3.8820 C   0  0  1  0  0  0  0  0  0  0  0  0
   40.2107   42.4627   -5.9617 C   0  0  1  0  0  0  0  0  0  0  0  0
   36.1858   43.7254   -2.0660 C   0  0  2  0  0  0  0  0  0  0  0  0
   35.7264   42.3936   -1.6462 N   0  0  0  0  0  0  0  0  0  0  0  0
   35.6901   39.7925   -6.2565 C   0  0  0  0  0  0  0  0  0  0  0  0
   40.2763   42.0818   -3.0641 C   0  0  2  0  0  0  0  0  0  0  0  0
   40.1107   43.4927   -2.9110 O   0  0  0  0  0  0  0  0  0  0  0  0
   40.6283   41.7049   -7.2263 C   0  0  2  0  0  0  0  0  0  0  0  0
   41.6821   42.4763   -7.8997 N   0  0  0  0  0  0  0  0  0  0  0  0
   34.9871   44.6763   -2.1112 C   0  0  1  0  0  0  0  0  0  0  0  0
   34.4577   44.8302   -0.7908 O   0  0  0  0  0  0  0  0  0  0  0  0
   35.4493   41.2436   -5.8269 C   0  0  2  0  0  0  0  0  0  0  0  0
   35.4301   42.1065   -7.0177 N   0  0  0  0  0  0  0  0  0  0  0  0
   41.4292   41.8236   -4.0321 C   0  0  2  0  0  0  0  0  0  0  0  0
   41.3694   42.7240   -5.1505 O   0  0  0  0  0  0  0  0  0  0  0  0
   39.4446   41.5379   -8.1881 C   0  0  1  0  0  0  0  0  0  0  0  0
   38.4998   40.6037   -7.6594 O   0  0  0  0  0  0  0  0  0  0  0  0
   35.4261   46.0399   -2.6480 C   0  0  2  0  0  0  0  0  0  0  0  0
   34.2848   46.8895   -2.7923 O   0  0  0  0  0  0  0  0  0  0  0  0
   36.5135   41.7662   -4.8539 C   0  0  2  0  0  0  0  0  0  0  0  0
   41.0923   40.4149   -4.4948 C   0  0  2  0  0  0  0  0  0  0  0  0
   39.6560   40.2838   -4.4226 O   0  0  0  0  0  0  0  0  0  0  0  0
   38.7362   42.8728   -8.4247 C   0  0  2  0  0  0  0  0  0  0  0  0
   39.6113   43.7373   -9.1547 O   0  0  0  0  0  0  0  0  0  0  0  0
   36.1092   45.8602   -4.0046 C   0  0  2  0  0  0  0  0  0  0  0  0
   37.2413   44.9773   -3.8781 O   0  0  0  0  0  0  0  0  0  0  0  0
   36.8073   40.8299   -3.6836 C   0  0  2  0  0  0  0  0  0  0  0  0
   37.9995   41.2679   -3.0116 O   0  0  0  0  0  0  0  0  0  0  0  0
   41.7837   39.3995   -3.5824 C   0  0  0  0  0  0  0  0  0  0  0  0
   41.4123   39.6602   -2.2270 O   0  0  0  0  0  0  0  0  0  0  0  0
   38.3780   43.4930   -7.0716 C   0  0  1  0  0  0  0  0  0  0  0  0
   39.5939   43.7057   -6.3329 O   0  0  0  0  0  0  0  0  0  0  0  0
   36.5722   47.2405   -4.4777 C   0  0  0  0  0  0  0  0  0  0  0  0
   37.1312   47.1476   -5.8341 O   0  0  0  0  0  0  0  0  0  0  0  0
   36.9795   39.3851   -4.1672 C   0  0  1  0  0  0  0  0  0  0  0  0
   37.1645   38.5140   -3.0492 O   0  0  0  0  0  0  0  0  0  0  0  0
   37.6444   44.8263   -7.2220 C   0  0  0  0  0  0  0  0  0  0  0  0
   38.4892   45.7606   -7.9790 N   0  0  0  0  0  0  0  0  0  0  0  0
  1  2  1  6  0  0  0
  1  7  1  0  0  0  0
  1 30  1  0  0  0  0
  3  4  1  6  0  0  0
  3  9  1  0  0  0  0
  3 39  1  0  0  0  0
  5 10  1  0  0  0  0
  5 26  1  0  0  0  0
  5 32  1  1  0  0  0
  6 12  1  0  0  0  0
  6 36  1  0  0  0  0
  6 19  1  1  0  0  0
  7  8  1  6  0  0  0
  7 14  1  0  0  0  0
  9 16  1  0  0  0  0
 10 11  1  6  0  0  0
 10 18  1  0  0  0  0
 12 13  1  6  0  0  0
 12 20  1  0  0  0  0
 14 15  1  1  0  0  0
 14 22  1  0  0  0  0
 16 17  1  6  0  0  0
 16 24  1  0  0  0  0
 18 19  1  6  0  0  0
 18 25  1  0  0  0  0
 20 21  1  1  0  0  0
 20 27  1  0  0  0  0
 22 23  1  6  0  0  0
 22 29  1  0  0  0  0
 24  2  1  1  0  0  0
 24 31  1  0  0  0  0
 25 26  1  0  0  0  0
 25 33  1  1  0  0  0
 27 28  1  1  0  0  0
 27 35  1  0  0  0  0
 29 30  1  0  0  0  0
 29 37  1  1  0  0  0
 31 32  1  6  0  0  0
 31 39  1  0  0  0  0
 33 34  1  0  0  0  0
 35 36  1  0  0  0  0
 35 41  1  6  0  0  0
 37 38  1  0  0  0  0
 39 40  1  1  0  0  0
 41 42  1  0  0  0  0
M  END
>  <CHROM.1>
-114.70196472,175.00875985,-103.19203236,-66.52433401,178.89758570,55.16646564
-174.98775717,-50.01402314,-58.48943355,37.96083653,42.55786959,-4.81879296
2.64099763,0.76564651,-0.46160311

>  <Name>
3c44_lig

>  <RI>
0

>  <Rbt.Current_Directory>
/home/itssahil/PROJECTS/Mol_Feturizer/New_Systems/rnas/3c44

>  <Rbt.Executable>
rbdock ($Id: //depot/dev/client3/rdock/2013.1/src/exe/rbdock.cxx#4 $)

>  <Rbt.Library>
libRbt.so (2013.1, Build901 2013/11/27)

>  <Rbt.Parameter_File>
/export/apps/rDock/src/rDock_2013.1_src/data/scripts/dock_solv.prm

>  <Rbt.Receptor>
prm/blind_docking_80.prm

>  <SCORE>
9.38815

>  <SCORE.INTER>
-6.53532

>  <SCORE.INTER.CONST>
1

>  <SCORE.INTER.POLAR>
-0.607821

>  <SCORE.INTER.ROT>
9

>  <SCORE.INTER.SOLV>
24.8301

>  <SCORE.INTER.VDW>
-20.2075

>  <SCORE.INTER.norm>
-0.155603

>  <SCORE.INTRA>
12.4614

>  <SCORE.INTRA.DIHEDRAL>
-0.417227

>  <SCORE.INTRA.DIHEDRAL.0>
14.8538

>  <SCORE.INTRA.POLAR>
0

>  <SCORE.INTRA.POLAR.0>
0

>  <SCORE.INTRA.REPUL>
0.00155352

>  <SCORE.INTRA.REPUL.0>
0

>  <SCORE.INTRA.SOLV>
6.6632

>  <SCORE.INTRA.SOLV.lig_0>
-100.951

>  <SCORE.INTRA.VDW>
9.33069

>  <SCORE.INTRA.VDW.0>
-5.71388

>  <SCORE.INTRA.norm>
0.296701

>  <SCORE.RESTR>
3.46203

>  <SCORE.RESTR.CAVITY>
3.46203

>  <SCORE.RESTR.norm>
0.0824292

>  <SCORE.SYSTEM>
0

>  <SCORE.SYSTEM.CONST>
0

>  <SCORE.SYSTEM.DIHEDRAL>
0

>  <SCORE.SYSTEM.SOLV>
0

>  <SCORE.SYSTEM.norm>
0

>  <SCORE.heavy>
42

>  <SCORE.norm>
0.223527

>  <RMSD>
11.813

$$$$
3c44_lig
 OpenBabel11021811463D
libRbt.so/2013.1/901 2013/11/27
 42 45  0  0  0  0  0  0  0  0999 V2000
   36.1759   40.8288   -0.6552 C   0  0  2  0  0  0  0  0  0  0  0  0
   35.2196   41.5899   -1.4088 O   0  0  0  0  0  0  0  0  0  0  0  0
   34.4473   45.5297   -2.4436 C   0  0  2  0  0  0  0  0  0  0  0  0
   34.2943   46.9793   -2.6411 N   0  0  0  0  0  0  0  0  0  0  0  0
   37.9543   43.2346   -4.0075 C   0  0  1  0  0  0  0  0  0  0  0  0
   39.1617   43.5034   -7.5259 C   0  0  1  0  0  0  0  0  0  0  0  0
   36.5242   39.5537   -1.4304 C   0  0  2  0  0  0  0  0  0  0  0  0
   36.9797   39.8754   -2.7905 N   0  0  0  0  0  0  0  0  0  0  0  0
   34.0078   45.1280   -1.0327 C   0  0  0  0  0  0  0  0  0  0  0  0
   39.4621   42.9896   -3.9311 C   0  0  2  0  0  0  0  0  0  0  0  0
   40.1384   44.2054   -3.6054 O   0  0  0  0  0  0  0  0  0  0  0  0
   39.4253   44.6744   -8.4783 C   0  0  2  0  0  0  0  0  0  0  0  0
   38.8520   45.8901   -7.8846 N   0  0  0  0  0  0  0  0  0  0  0  0
   35.3230   38.6088   -1.5161 C   0  0  1  0  0  0  0  0  0  0  0  0
   35.7371   37.3725   -2.1055 O   0  0  0  0  0  0  0  0  0  0  0  0
   34.0451   43.5983   -0.9502 C   0  0  2  0  0  0  0  0  0  0  0  0
   33.6874   43.1757    0.4123 N   0  0  0  0  0  0  0  0  0  0  0  0
   39.7412   42.6475   -5.3933 C   0  0  2  0  0  0  0  0  0  0  0  0
   39.6654   43.8226   -6.2170 O   0  0  0  0  0  0  0  0  0  0  0  0
   38.7713   44.4344   -9.8454 C   0  0  1  0  0  0  0  0  0  0  0  0
   39.4598   43.4002  -10.5534 O   0  0  0  0  0  0  0  0  0  0  0  0
   34.7678   38.3464   -0.1149 C   0  0  2  0  0  0  0  0  0  0  0  0
   33.5815   37.5535   -0.2089 O   0  0  0  0  0  0  0  0  0  0  0  0
   35.4164   43.0110   -1.3067 C   0  0  2  0  0  0  0  0  0  0  0  0
   38.5607   41.7378   -5.6953 C   0  0  2  0  0  0  0  0  0  0  0  0
   37.4746   42.1671   -4.8458 O   0  0  0  0  0  0  0  0  0  0  0  0
   37.3042   44.0306   -9.6895 C   0  0  2  0  0  0  0  0  0  0  0  0
   36.5685   45.1483   -9.1840 O   0  0  0  0  0  0  0  0  0  0  0  0
   34.4449   39.6777    0.5653 C   0  0  2  0  0  0  0  0  0  0  0  0
   35.6265   40.5001    0.6345 O   0  0  0  0  0  0  0  0  0  0  0  0
   36.0184   43.5619   -2.5977 C   0  0  2  0  0  0  0  0  0  0  0  0
   37.3995   43.1745   -2.6819 O   0  0  0  0  0  0  0  0  0  0  0  0
   38.9473   40.2866   -5.4023 C   0  0  0  0  0  0  0  0  0  0  0  0
   40.1320   39.9618   -6.1330 O   0  0  0  0  0  0  0  0  0  0  0  0
   37.2135   42.8484   -8.7209 C   0  0  1  0  0  0  0  0  0  0  0  0
   37.7480   43.2596   -7.4503 O   0  0  0  0  0  0  0  0  0  0  0  0
   33.9400   39.3674    1.9768 C   0  0  0  0  0  0  0  0  0  0  0  0
   35.0725   39.0553    2.8605 O   0  0  0  0  0  0  0  0  0  0  0  0
   35.8988   45.0896   -2.6501 C   0  0  1  0  0  0  0  0  0  0  0  0
   36.3862   45.5756   -3.9028 O   0  0  0  0  0  0  0  0  0  0  0  0
   35.7747   42.3684   -8.5265 C   0  0  0  0  0  0  0  0  0  0  0  0
   35.7641   41.2400   -7.5852 N   0  0  0  0  0  0  0  0  0  0  0  0
  1  2  1  6  0  0  0
  1  7  1  0  0  0  0
  1 30  1  0  0  0  0
  3  4  1  1  0  0  0
  3  9  1  0  0  0  0
  3 39  1  0  0  0  0
  5 10  1  0  0  0  0
  5 26  1  0  0  0  0
  5 32  1  1  0  0  0
  6 12  1  0  0  0  0
  6 36  1  0  0  0  0
  6 19  1  1  0  0  0
  7  8  1  6  0  0  0
  7 14  1  0  0  0  0
  9 16  1  0  0  0  0
 10 11  1  6  0  0  0
 10 18  1  0  0  0  0
 12 13  1  1  0  0  0
 12 20  1  0  0  0  0
 14 15  1  1  0  0  0
 14 22  1  0  0  0  0
 16 17  1  1  0  0  0
 16 24  1  0  0  0  0
 18 19  1  6  0  0  0
 18 25  1  0  0  0  0
 20 21  1  1  0  0  0
 20 27  1  0  0  0  0
 22 23  1  6  0  0  0
 22 29  1  0  0  0  0
 24  2  1  6  0  0  0
 24 31  1  0  0  0  0
 25 26  1  0  0  0  0
 25 33  1  1  0  0  0
 27 28  1  1  0  0  0
 27 35  1  0  0  0  0
 29 30  1  0  0  0  0
 29 37  1  1  0  0  0
 31 32  1  1  0  0  0
 31 39  1  0  0  0  0
 33 34  1  0  0  0  0
 35 36  1  0  0  0  0
 35 41  1  1  0  0  0
 37 38  1  0  0  0  0
 39 40  1  6  0  0  0
 41 42  1  0  0  0  0
M  END
>  <CHROM.1>
-143.49645002,172.23345585,-165.61465015,-146.71276787,-130.05240465,-54.69245752
78.12825657,160.38149745,-179.81300275,36.75585445,42.33126846,-3.91702614
-2.40619637,1.04928117,-0.39542359

>  <Name>
3c44_lig

>  <RI>
0

>  <Rbt.Current_Directory>
/home/itssahil/PROJECTS/Mol_Feturizer/New_Systems/rnas/3c44

>  <Rbt.Executable>
rbdock ($Id: //depot/dev/client3/rdock/2013.1/src/exe/rbdock.cxx#4 $)

>  <Rbt.Library>
libRbt.so (2013.1, Build901 2013/11/27)

>  <Rbt.Parameter_File>
/export/apps/rDock/src/rDock_2013.1_src/data/scripts/dock_solv.prm

>  <Rbt.Receptor>
prm/blind_docking_80.prm

>  <SCORE>
14.6731

>  <SCORE.INTER>
0.715633

>  <SCORE.INTER.CONST>
1

>  <SCORE.INTER.POLAR>
-0.885096

>  <SCORE.INTER.ROT>
9

>  <SCORE.INTER.SOLV>
22.8067

>  <SCORE.INTER.VDW>
-13.7748

>  <SCORE.INTER.norm>
0.0170389

>  <SCORE.INTRA>
9.2938

>  <SCORE.INTRA.DIHEDRAL>
5.08982

>  <SCORE.INTRA.DIHEDRAL.0>
14.8538

>  <SCORE.INTRA.POLAR>
0

>  <SCORE.INTRA.POLAR.0>
0

>  <SCORE.INTRA.REPUL>
0

>  <SCORE.INTRA.REPUL.0>
0

>  <SCORE.INTRA.SOLV>
2.04244

>  <SCORE.INTRA.SOLV.lig_0>
-100.951

>  <SCORE.INTRA.VDW>
5.72767

>  <SCORE.INTRA.VDW.0>
-5.71388

>  <SCORE.INTRA.norm>
0.221281

>  <SCORE.RESTR>
4.66367

>  <SCORE.RESTR.CAVITY>
4.66367

>  <SCORE.RESTR.norm>
0.11104

>  <SCORE.SYSTEM>
0

>  <SCORE.SYSTEM.CONST>
0

>  <SCORE.SYSTEM.DIHEDRAL>
0

>  <SCORE.SYSTEM.SOLV>
0

>  <SCORE.SYSTEM.norm>
0

>  <SCORE.heavy>
42

>  <SCORE.norm>
0.34936

>  <RMSD>
11.947

$$$$
3c44_lig
 OpenBabel11021811463D
libRbt.so/2013.1/901 2013/11/27
 42 45  0  0  0  0  0  0  0  0999 V2000
   37.9315   44.0639   -8.7301 C   0  0  2  0  0  0  0  0  0  0  0  0
   38.9230   43.6785   -7.7657 O   0  0  0  0  0  0  0  0  0  0  0  0
   37.4533   39.8050   -7.6079 C   0  0  2  0  0  0  0  0  0  0  0  0
   37.0195   38.4221   -7.3562 N   0  0  0  0  0  0  0  0  0  0  0  0
   36.6676   42.6941   -4.6950 C   0  0  1  0  0  0  0  0  0  0  0  0
   37.5907   41.1788   -2.9151 C   0  0  1  0  0  0  0  0  0  0  0  0
   38.6024   44.8812   -9.8390 C   0  0  2  0  0  0  0  0  0  0  0  0
   39.7283   44.1412  -10.4272 N   0  0  0  0  0  0  0  0  0  0  0  0
   38.9696   39.9344   -7.4373 C   0  0  0  0  0  0  0  0  0  0  0  0
   37.0668   43.8828   -3.8194 C   0  0  2  0  0  0  0  0  0  0  0  0
   38.4813   44.0773   -3.8755 O   0  0  0  0  0  0  0  0  0  0  0  0
   36.5711   40.1643   -2.3867 C   0  0  2  0  0  0  0  0  0  0  0  0
   36.9169   39.8448   -0.9948 N   0  0  0  0  0  0  0  0  0  0  0  0
   39.1094   46.2255   -9.3108 C   0  0  1  0  0  0  0  0  0  0  0  0
   39.5817   47.0146  -10.4069 O   0  0  0  0  0  0  0  0  0  0  0  0
   39.3678   41.3513   -7.8640 C   0  0  2  0  0  0  0  0  0  0  0  0
   40.8122   41.5342   -7.6558 N   0  0  0  0  0  0  0  0  0  0  0  0
   36.7008   43.3245   -2.4456 C   0  0  2  0  0  0  0  0  0  0  0  0
   37.6398   42.3166   -2.0365 O   0  0  0  0  0  0  0  0  0  0  0  0
   36.5966   38.8719   -3.2132 C   0  0  1  0  0  0  0  0  0  0  0  0
   36.0450   39.0994   -4.5127 O   0  0  0  0  0  0  0  0  0  0  0  0
   37.9746   46.9652   -8.6000 C   0  0  2  0  0  0  0  0  0  0  0  0
   38.4785   48.1682   -8.0135 O   0  0  0  0  0  0  0  0  0  0  0  0
   38.6145   42.4440   -7.0952 C   0  0  2  0  0  0  0  0  0  0  0  0
   35.3618   42.6753   -2.7582 C   0  0  2  0  0  0  0  0  0  0  0  0
   35.4080   42.2683   -4.1429 O   0  0  0  0  0  0  0  0  0  0  0  0
   38.0250   38.3480   -3.3703 C   0  0  2  0  0  0  0  0  0  0  0  0
   38.5001   37.9111   -2.0938 O   0  0  0  0  0  0  0  0  0  0  0  0
   37.3830   46.0695   -7.5105 C   0  0  2  0  0  0  0  0  0  0  0  0
   36.9029   44.8382   -8.0855 O   0  0  0  0  0  0  0  0  0  0  0  0
   37.1031   42.2350   -7.0278 C   0  0  2  0  0  0  0  0  0  0  0  0
   36.5413   43.1346   -6.0583 O   0  0  0  0  0  0  0  0  0  0  0  0
   34.2374   43.6853   -2.5192 C   0  0  0  0  0  0  0  0  0  0  0  0
   34.7425   45.0057   -2.7298 O   0  0  0  0  0  0  0  0  0  0  0  0
   38.9105   39.4723   -3.9143 C   0  0  1  0  0  0  0  0  0  0  0  0
   38.8872   40.5633   -2.9770 O   0  0  0  0  0  0  0  0  0  0  0  0
   36.2241   46.8311   -6.8620 C   0  0  0  0  0  0  0  0  0  0  0  0
   35.2873   47.2984   -7.8940 O   0  0  0  0  0  0  0  0  0  0  0  0
   36.7661   40.7864   -6.6551 C   0  0  1  0  0  0  0  0  0  0  0  0
   35.3505   40.5905   -6.6849 O   0  0  0  0  0  0  0  0  0  0  0  0
   40.3570   39.0214   -4.1209 C   0  0  0  0  0  0  0  0  0  0  0  0
   40.3834   37.9012   -5.0717 N   0  0  0  0  0  0  0  0  0  0  0  0
  1  2  1  1  0  0  0
  1  7  1  0  0  0  0
  1 30  1  0  0  0  0
  3  4  1  1  0  0  0
  3  9  1  0  0  0  0
  3 39  1  0  0  0  0
  5 10  1  0  0  0  0
  5 26  1  0  0  0  0
  5 32  1  6  0  0  0
  6 12  1  0  0  0  0
  6 36  1  0  0  0  0
  6 19  1  1  0  0  0
  7  8  1  1  0  0  0
  7 14  1  0  0  0  0
  9 16  1  0  0  0  0
 10 11  1  1  0  0  0
 10 18  1  0  0  0  0
 12 13  1  1  0  0  0
 12 20  1  0  0  0  0
 14 15  1  6  0  0  0
 14 22  1  0  0  0  0
 16 17  1  1  0  0  0
 16 24  1  0  0  0  0
 18 19  1  6  0  0  0
 18 25  1  0  0  0  0
 20 21  1  6  0  0  0
 20 27  1  0  0  0  0
 22 23  1  1  0  0  0
 22 29  1  0  0  0  0
 24  2  1  6  0  0  0
 24 31  1  0  0  0  0
 25 26  1  0  0  0  0
 25 33  1  6  0  0  0
 27 28  1  1  0  0  0
 27 35  1  0  0  0  0
 29 30  1  0  0  0  0
 29 37  1  6  0  0  0
 31 32  1  1  0  0  0
 31 39  1  0  0  0  0
 33 34  1  0  0  0  0
 35 36  1  0  0  0  0
 35 41  1  1  0  0  0
 37 38  1  0  0  0  0
 39 40  1  6  0  0  0
 41 42  1  0  0  0  0
M  END
>  <CHROM.1>
-151.08347782,137.60297280,-90.48078860,-64.19863552,95.58116195,28.32932700
52.58450484,-80.61885907,59.45883285,37.58252901,42.48649327,-5.69099355
-1.46619556,-0.97627974,2.52217161

>  <Name>
3c44_lig

>  <RI>
0

>  <Rbt.Current_Directory>
/home/itssahil/PROJECTS/Mol_Feturizer/New_Systems/rnas/3c44

>  <Rbt.Executable>
rbdock ($Id: //depot/dev/client3/rdock/2013.1/src/exe/rbdock.cxx#4 $)

>  <Rbt.Library>
libRbt.so (2013.1, Build901 2013/11/27)

>  <Rbt.Parameter_File>
/export/apps/rDock/src/rDock_2013.1_src/data/scripts/dock_solv.prm

>  <Rbt.Receptor>
prm/blind_docking_100.prm

>  <SCORE>
19.4925

>  <SCORE.INTER>
-2.54834

>  <SCORE.INTER.CONST>
1

>  <SCORE.INTER.POLAR>
-0.934453

>  <SCORE.INTER.ROT>
9

>  <SCORE.INTER.SOLV>
24.6803

>  <SCORE.INTER.VDW>
-16.4108

>  <SCORE.INTER.norm>
-0.0606747

>  <SCORE.INTRA>
19.395

>  <SCORE.INTRA.DIHEDRAL>
7.95934

>  <SCORE.INTRA.DIHEDRAL.0>
14.8538

>  <SCORE.INTRA.POLAR>
0

>  <SCORE.INTRA.POLAR.0>
0

>  <SCORE.INTRA.REPUL>
0

>  <SCORE.INTRA.REPUL.0>
0

>  <SCORE.INTRA.SOLV>
3.18364

>  <SCORE.INTRA.SOLV.lig_0>
-100.951

>  <SCORE.INTRA.VDW>
13.8235

>  <SCORE.INTRA.VDW.0>
-5.71388

>  <SCORE.INTRA.norm>
0.461786

>  <SCORE.RESTR>
2.64581

>  <SCORE.RESTR.CAVITY>
2.64581

>  <SCORE.RESTR.norm>
0.0629956

>  <SCORE.SYSTEM>
0

>  <SCORE.SYSTEM.CONST>
0

>  <SCORE.SYSTEM.DIHEDRAL>
0

>  <SCORE.SYSTEM.SOLV>
0

>  <SCORE.SYSTEM.norm>
0

>  <SCORE.heavy>
42

>  <SCORE.norm>
0.464107

>  <RMSD>
11.949

$$$$
3c44_lig
 OpenBabel11021811463D
libRbt.so/2013.1/901 2013/11/27
 42 45  0  0  0  0  0  0  0  0999 V2000
   40.0141   41.2363   -6.4943 C   0  0  2  0  0  0  0  0  0  0  0  0
   39.7277   40.2591   -5.4820 O   0  0  0  0  0  0  0  0  0  0  0  0
   36.6642   38.8557   -7.8977 C   0  0  2  0  0  0  0  0  0  0  0  0
   35.6078   38.1691   -8.6569 N   0  0  0  0  0  0  0  0  0  0  0  0
   37.3140   41.0208   -3.5728 C   0  0  1  0  0  0  0  0  0  0  0  0
   35.9024   43.5557   -1.0376 C   0  0  1  0  0  0  0  0  0  0  0  0
   41.0687   42.2130   -5.9635 C   0  0  2  0  0  0  0  0  0  0  0  0
   42.2622   41.4926   -5.4970 N   0  0  0  0  0  0  0  0  0  0  0  0
   37.9992   38.1197   -8.0440 C   0  0  0  0  0  0  0  0  0  0  0  0
   36.9374   40.8762   -2.0976 C   0  0  2  0  0  0  0  0  0  0  0  0
   35.5343   41.0873   -1.9289 O   0  0  0  0  0  0  0  0  0  0  0  0
   34.6120   43.3043   -1.8248 C   0  0  2  0  0  0  0  0  0  0  0  0
   34.6524   44.1166   -3.0486 N   0  0  0  0  0  0  0  0  0  0  0  0
   40.5152   43.0596   -4.8146 C   0  0  1  0  0  0  0  0  0  0  0  0
   41.4762   44.0588   -4.4601 O   0  0  0  0  0  0  0  0  0  0  0  0
   39.0773   38.9690   -7.3626 C   0  0  2  0  0  0  0  0  0  0  0  0
   40.3662   38.2638   -7.4290 N   0  0  0  0  0  0  0  0  0  0  0  0
   37.6884   42.0752   -1.5219 C   0  0  2  0  0  0  0  0  0  0  0  0
   37.0397   43.3059   -1.8820 O   0  0  0  0  0  0  0  0  0  0  0  0
   33.3772   43.7027   -1.0059 C   0  0  1  0  0  0  0  0  0  0  0  0
   33.1746   42.7838    0.0709 O   0  0  0  0  0  0  0  0  0  0  0  0
   39.2124   43.7344   -5.2478 C   0  0  2  0  0  0  0  0  0  0  0  0
   38.6421   44.4344   -4.1389 O   0  0  0  0  0  0  0  0  0  0  0  0
   38.7582   39.2801   -5.8950 C   0  0  2  0  0  0  0  0  0  0  0  0
   39.0086   41.9591   -2.2673 C   0  0  2  0  0  0  0  0  0  0  0  0
   38.7171   41.3414   -3.5396 O   0  0  0  0  0  0  0  0  0  0  0  0
   33.5317   45.1105   -0.4281 C   0  0  2  0  0  0  0  0  0  0  0  0
   33.5117   46.0555   -1.5018 O   0  0  0  0  0  0  0  0  0  0  0  0
   38.2294   42.6752   -5.7490 C   0  0  2  0  0  0  0  0  0  0  0  0
   38.8075   41.9394   -6.8451 O   0  0  0  0  0  0  0  0  0  0  0  0
   37.3409   39.7973   -5.6572 C   0  0  2  0  0  0  0  0  0  0  0  0
   37.0573   39.7774   -4.2487 O   0  0  0  0  0  0  0  0  0  0  0  0
   39.9814   41.1049   -1.4514 C   0  0  0  0  0  0  0  0  0  0  0  0
   39.4299   39.7965   -1.2871 O   0  0  0  0  0  0  0  0  0  0  0  0
   34.8576   45.1937    0.3328 C   0  0  1  0  0  0  0  0  0  0  0  0
   35.9282   44.9198   -0.5881 O   0  0  0  0  0  0  0  0  0  0  0  0
   36.9639   43.3998   -6.2147 C   0  0  0  0  0  0  0  0  0  0  0  0
   35.9189   42.4228   -6.5533 O   0  0  0  0  0  0  0  0  0  0  0  0
   36.3127   38.9449   -6.4104 C   0  0  1  0  0  0  0  0  0  0  0  0
   35.0050   39.4983   -6.2469 O   0  0  0  0  0  0  0  0  0  0  0  0
   35.0787   46.5698    0.9619 C   0  0  0  0  0  0  0  0  0  0  0  0
   35.3229   47.5543   -0.1015 N   0  0  0  0  0  0  0  0  0  0  0  0
  1  2  1  1  0  0  0
  1  7  1  0  0  0  0
  1 30  1  0  0  0  0
  3  4  1  6  0  0  0
  3  9  1  0  0  0  0
  3 39  1  0  0  0  0
  5 10  1  0  0  0  0
  5 26  1  0  0  0  0
  5 32  1  6  0  0  0
  6 12  1  0  0  0  0
  6 36  1  0  0  0  0
  6 19  1  6  0  0  0
  7  8  1  1  0  0  0
  7 14  1  0  0  0  0
  9 16  1  0  0  0  0
 10 11  1  6  0  0  0
 10 18  1  0  0  0  0
 12 13  1  6  0  0  0
 12 20  1  0  0  0  0
 14 15  1  6  0  0  0
 14 22  1  0  0  0  0
 16 17  1  1  0  0  0
 16 24  1  0  0  0  0
 18 19  1  6  0  0  0
 18 25  1  0  0  0  0
 20 21  1  1  0  0  0
 20 27  1  0  0  0  0
 22 23  1  1  0  0  0
 22 29  1  0  0  0  0
 24  2  1  6  0  0  0
 24 31  1  0  0  0  0
 25 26  1  0  0  0  0
 25 33  1  1  0  0  0
 27 28  1  6  0  0  0
 27 35  1  0  0  0  0
 29 30  1  0  0  0  0
 29 37  1  6  0  0  0
 31 32  1  1  0  0  0
 31 39  1  0  0  0  0
 33 34  1  0  0  0  0
 35 36  1  0  0  0  0
 35 41  1  6  0  0  0
 37 38  1  0  0  0  0
 39 40  1  6  0  0  0
 41 42  1  0  0  0  0
M  END
>  <CHROM.1>
-179.11018835,178.48618408,-106.37759242,79.51248460,39.11022186,61.10930434
-173.05876670,94.23335044,-69.64648832,37.33726750,42.06404053,-3.86062191
-1.09562431,0.17363287,0.79771548

>  <Name>
3c44_lig

>  <RI>
224

>  <Rbt.Current_Directory>
/home/itssahil/PROJECTS/Mol_Feturizer/New_Systems/rnas/3c44

>  <Rbt.Executable>
rbdock ($Id: //depot/dev/client3/rdock/2013.1/src/exe/rbdock.cxx#4 $)

>  <Rbt.Library>
libRbt.so (2013.1, Build901 2013/11/27)

>  <Rbt.Parameter_File>
/export/apps/rDock/src/rDock_2013.1_src/data/scripts/dock_solv.prm

>  <Rbt.Receptor>
prm/blind_docking_60.prm

>  <SCORE>
25.3514

>  <SCORE.INTER>
8.2833

>  <SCORE.INTER.CONST>
1

>  <SCORE.INTER.POLAR>
-1.68099

>  <SCORE.INTER.ROT>
9

>  <SCORE.INTER.SOLV>
35.152

>  <SCORE.INTER.VDW>
-10.1918

>  <SCORE.INTER.norm>
0.197221

>  <SCORE.INTRA>
11.5484

>  <SCORE.INTRA.DIHEDRAL>
0.357914

>  <SCORE.INTRA.DIHEDRAL.0>
14.8538

>  <SCORE.INTRA.POLAR>
0

>  <SCORE.INTRA.POLAR.0>
0

>  <SCORE.INTRA.REPUL>
0.35061

>  <SCORE.INTRA.REPUL.0>
0

>  <SCORE.INTRA.SOLV>
3.27874

>  <SCORE.INTRA.SOLV.lig_0>
-100.951

>  <SCORE.INTRA.VDW>
7.97703

>  <SCORE.INTRA.VDW.0>
-5.71388

>  <SCORE.INTRA.norm>
0.274962

>  <SCORE.RESTR>
5.51968

>  <SCORE.RESTR.CAVITY>
5.51968

>  <SCORE.RESTR.norm>
0.131421

>  <SCORE.SYSTEM>
0

>  <SCORE.SYSTEM.CONST>
0

>  <SCORE.SYSTEM.DIHEDRAL>
0

>  <SCORE.SYSTEM.SOLV>
0

>  <SCORE.SYSTEM.norm>
0

>  <SCORE.heavy>
42

>  <SCORE.norm>
0.603604

>  <RMSD>
12.075

$$$$
3c44_lig
 OpenBabel11021811463D
libRbt.so/2013.1/901 2013/11/27
 42 45  0  0  0  0  0  0  0  0999 V2000
   37.9778   40.9649   -4.1478 C   0  0  2  0  0  0  0  0  0  0  0  0
   37.1126   39.8846   -3.7657 O   0  0  0  0  0  0  0  0  0  0  0  0
   34.9146   39.3493   -0.2913 C   0  0  2  0  0  0  0  0  0  0  0  0
   34.3244   39.1352    1.0390 N   0  0  0  0  0  0  0  0  0  0  0  0
   36.3981   43.3156   -2.1653 C   0  0  1  0  0  0  0  0  0  0  0  0
   36.0209   44.8016   -3.9936 C   0  0  1  0  0  0  0  0  0  0  0  0
   38.8225   40.5290   -5.3496 C   0  0  2  0  0  0  0  0  0  0  0  0
   37.9670   40.0540   -6.4466 N   0  0  0  0  0  0  0  0  0  0  0  0
   35.8314   38.1823   -0.6691 C   0  0  0  0  0  0  0  0  0  0  0  0
   34.9091   43.0373   -2.3759 C   0  0  2  0  0  0  0  0  0  0  0  0
   34.6916   42.5090   -3.6856 O   0  0  0  0  0  0  0  0  0  0  0  0
   36.8316   46.0546   -4.3408 C   0  0  2  0  0  0  0  0  0  0  0  0
   36.0516   46.8605   -5.2902 N   0  0  0  0  0  0  0  0  0  0  0  0
   39.8055   39.4200   -4.9663 C   0  0  1  0  0  0  0  0  0  0  0  0
   40.6755   39.1587   -6.0718 O   0  0  0  0  0  0  0  0  0  0  0  0
   36.2836   38.3944   -2.1177 C   0  0  2  0  0  0  0  0  0  0  0  0
   37.2170   37.3232   -2.4977 N   0  0  0  0  0  0  0  0  0  0  0  0
   34.3710   44.4659   -2.3258 C   0  0  2  0  0  0  0  0  0  0  0  0
   34.7178   45.1853   -3.5205 O   0  0  0  0  0  0  0  0  0  0  0  0
   38.1722   45.6848   -4.9889 C   0  0  1  0  0  0  0  0  0  0  0  0
   39.0498   45.1014   -4.0224 O   0  0  0  0  0  0  0  0  0  0  0  0
   40.6336   39.8558   -3.7561 C   0  0  2  0  0  0  0  0  0  0  0  0
   41.4717   38.7768   -3.3338 O   0  0  0  0  0  0  0  0  0  0  0  0
   36.9673   39.7491   -2.3411 C   0  0  2  0  0  0  0  0  0  0  0  0
   35.1625   45.0190   -1.1512 C   0  0  2  0  0  0  0  0  0  0  0  0
   36.4183   44.3066   -1.1212 O   0  0  0  0  0  0  0  0  0  0  0  0
   37.9732   44.6915   -6.1349 C   0  0  2  0  0  0  0  0  0  0  0  0
   37.2823   45.3485   -7.2013 O   0  0  0  0  0  0  0  0  0  0  0  0
   39.6988   40.2590   -2.6146 C   0  0  2  0  0  0  0  0  0  0  0  0
   38.8249   41.3232   -3.0400 O   0  0  0  0  0  0  0  0  0  0  0  0
   36.2034   40.9398   -1.7656 C   0  0  2  0  0  0  0  0  0  0  0  0
   37.0538   42.0980   -1.7704 O   0  0  0  0  0  0  0  0  0  0  0  0
   34.3752   44.8003    0.1425 C   0  0  0  0  0  0  0  0  0  0  0  0
   33.4656   43.7133   -0.0421 O   0  0  0  0  0  0  0  0  0  0  0  0
   37.1593   43.4994   -5.6247 C   0  0  1  0  0  0  0  0  0  0  0  0
   35.8844   43.9824   -5.1657 O   0  0  0  0  0  0  0  0  0  0  0  0
   40.5688   40.7315   -1.4470 C   0  0  0  0  0  0  0  0  0  0  0  0
   39.7703   41.5470   -0.5206 O   0  0  0  0  0  0  0  0  0  0  0  0
   35.7257   40.6466   -0.3384 C   0  0  1  0  0  0  0  0  0  0  0  0
   34.9385   41.7363    0.1472 O   0  0  0  0  0  0  0  0  0  0  0  0
   36.9336   42.4456   -6.7097 C   0  0  0  0  0  0  0  0  0  0  0  0
   35.7592   41.6346   -6.3596 N   0  0  0  0  0  0  0  0  0  0  0  0
  1  2  1  1  0  0  0
  1  7  1  0  0  0  0
  1 30  1  0  0  0  0
  3  4  1  1  0  0  0
  3  9  1  0  0  0  0
  3 39  1  0  0  0  0
  5 10  1  0  0  0  0
  5 26  1  0  0  0  0
  5 32  1  1  0  0  0
  6 12  1  0  0  0  0
  6 36  1  0  0  0  0
  6 19  1  6  0  0  0
  7  8  1  6  0  0  0
  7 14  1  0  0  0  0
  9 16  1  0  0  0  0
 10 11  1  6  0  0  0
 10 18  1  0  0  0  0
 12 13  1  6  0  0  0
 12 20  1  0  0  0  0
 14 15  1  6  0  0  0
 14 22  1  0  0  0  0
 16 17  1  1  0  0  0
 16 24  1  0  0  0  0
 18 19  1  6  0  0  0
 18 25  1  0  0  0  0
 20 21  1  1  0  0  0
 20 27  1  0  0  0  0
 22 23  1  1  0  0  0
 22 29  1  0  0  0  0
 24  2  1  6  0  0  0
 24 31  1  0  0  0  0
 25 26  1  0  0  0  0
 25 33  1  1  0  0  0
 27 28  1  6  0  0  0
 27 35  1  0  0  0  0
 29 30  1  0  0  0  0
 29 37  1  1  0  0  0
 31 32  1  1  0  0  0
 31 39  1  0  0  0  0
 33 34  1  0  0  0  0
 35 36  1  0  0  0  0
 35 41  1  6  0  0  0
 37 38  1  0  0  0  0
 39 40  1  6  0  0  0
 41 42  1  0  0  0  0
M  END
>  <CHROM.1>
141.19389353,4.21799578,-133.47873763,-35.86256212,-167.90522495,23.57916449
160.65442085,138.92871147,-157.83173439,37.01923744,42.07673395,-3.14131824
-0.91487574,0.79099051,-0.64734573

>  <Name>
3c44_lig

>  <RI>
0

>  <Rbt.Current_Directory>
/home/itssahil/PROJECTS/Mol_Feturizer/New_Systems/rnas/3c44

>  <Rbt.Executable>
rbdock ($Id: //depot/dev/client3/rdock/2013.1/src/exe/rbdock.cxx#4 $)

>  <Rbt.Library>
libRbt.so (2013.1, Build901 2013/11/27)

>  <Rbt.Parameter_File>
/export/apps/rDock/src/rDock_2013.1_src/data/scripts/dock_solv.prm

>  <Rbt.Receptor>
prm/blind_docking_100.prm

>  <SCORE>
67.2556

>  <SCORE.INTER>
20.7183

>  <SCORE.INTER.CONST>
1

>  <SCORE.INTER.POLAR>
-0.150106

>  <SCORE.INTER.ROT>
9

>  <SCORE.INTER.SOLV>
21.4798

>  <SCORE.INTER.VDW>
-2.4474

>  <SCORE.INTER.norm>
0.493292

>  <SCORE.INTRA>
41.9845

>  <SCORE.INTRA.DIHEDRAL>
18.9675

>  <SCORE.INTRA.DIHEDRAL.0>
14.8538

>  <SCORE.INTRA.POLAR>
0

>  <SCORE.INTRA.POLAR.0>
0

>  <SCORE.INTRA.REPUL>
0.0567359

>  <SCORE.INTRA.REPUL.0>
0

>  <SCORE.INTRA.SOLV>
6.95485

>  <SCORE.INTRA.SOLV.lig_0>
-100.951

>  <SCORE.INTRA.VDW>
28.7396

>  <SCORE.INTRA.VDW.0>
-5.71388

>  <SCORE.INTRA.norm>
0.99963

>  <SCORE.RESTR>
4.55287

>  <SCORE.RESTR.CAVITY>
4.55287

>  <SCORE.RESTR.norm>
0.108402

>  <SCORE.SYSTEM>
0

>  <SCORE.SYSTEM.CONST>
0

>  <SCORE.SYSTEM.DIHEDRAL>
0

>  <SCORE.SYSTEM.SOLV>
0

>  <SCORE.SYSTEM.norm>
0

>  <SCORE.heavy>
42

>  <SCORE.norm>
1.60132

>  <RMSD>
12.114

$$$$
3c44_lig
 OpenBabel11021811463D
libRbt.so/2013.1/901 2013/11/27
 42 45  0  0  0  0  0  0  0  0999 V2000
   36.7872   44.1298   -5.2733 C   0  0  2  0  0  0  0  0  0  0  0  0
   38.1467   43.9353   -4.8542 O   0  0  0  0  0  0  0  0  0  0  0  0
   40.7433   43.0733   -7.9693 C   0  0  2  0  0  0  0  0  0  0  0  0
   41.6598   42.5655   -9.0018 N   0  0  0  0  0  0  0  0  0  0  0  0
   37.0037   41.2313   -6.4849 C   0  0  1  0  0  0  0  0  0  0  0  0
   37.4992   39.7261   -4.4916 C   0  0  1  0  0  0  0  0  0  0  0  0
   36.4784   45.6305   -5.2913 C   0  0  2  0  0  0  0  0  0  0  0  0
   37.4515   46.3558   -6.1208 N   0  0  0  0  0  0  0  0  0  0  0  0
   41.2724   42.7461   -6.5699 C   0  0  0  0  0  0  0  0  0  0  0  0
   35.5401   40.7966   -6.3951 C   0  0  2  0  0  0  0  0  0  0  0  0
   34.8963   41.4702   -5.3119 O   0  0  0  0  0  0  0  0  0  0  0  0
   38.5221   38.6039   -4.6967 C   0  0  2  0  0  0  0  0  0  0  0  0
   38.1849   37.5002   -3.7871 N   0  0  0  0  0  0  0  0  0  0  0  0
   36.4901   46.2183   -3.8779 C   0  0  1  0  0  0  0  0  0  0  0  0
   36.0434   47.5766   -3.9288 O   0  0  0  0  0  0  0  0  0  0  0  0
   40.3572   43.4350   -5.5522 C   0  0  2  0  0  0  0  0  0  0  0  0
   40.7983   43.0930   -4.1916 N   0  0  0  0  0  0  0  0  0  0  0  0
   35.7307   39.3287   -6.0184 C   0  0  2  0  0  0  0  0  0  0  0  0
   36.1693   39.2032   -4.6557 O   0  0  0  0  0  0  0  0  0  0  0  0
   39.9444   39.0870   -4.3839 C   0  0  1  0  0  0  0  0  0  0  0  0
   40.3947   39.9979   -5.3901 O   0  0  0  0  0  0  0  0  0  0  0  0
   35.5616   45.4084   -2.9712 C   0  0  2  0  0  0  0  0  0  0  0  0
   35.6595   45.8916   -1.6288 O   0  0  0  0  0  0  0  0  0  0  0  0
   38.8828   43.0421   -5.7081 C   0  0  2  0  0  0  0  0  0  0  0  0
   36.8661   38.9474   -6.9552 C   0  0  2  0  0  0  0  0  0  0  0  0
   37.6434   40.1438   -7.1781 O   0  0  0  0  0  0  0  0  0  0  0  0
   40.0004   39.7882   -3.0256 C   0  0  2  0  0  0  0  0  0  0  0  0
   39.7662   38.8223   -1.9969 O   0  0  0  0  0  0  0  0  0  0  0  0
   35.9601   43.9325   -3.0176 C   0  0  2  0  0  0  0  0  0  0  0  0
   35.8987   43.4433   -4.3719 O   0  0  0  0  0  0  0  0  0  0  0  0
   38.3608   43.1207   -7.1413 C   0  0  2  0  0  0  0  0  0  0  0  0
   37.0845   42.4652   -7.2194 O   0  0  0  0  0  0  0  0  0  0  0  0
   36.2871   38.4154   -8.2679 C   0  0  0  0  0  0  0  0  0  0  0  0
   36.0404   39.5135   -9.1490 O   0  0  0  0  0  0  0  0  0  0  0  0
   38.9302   40.8822   -2.9857 C   0  0  1  0  0  0  0  0  0  0  0  0
   37.6432   40.2662   -3.1683 O   0  0  0  0  0  0  0  0  0  0  0  0
   34.9767   43.1581   -2.1364 C   0  0  0  0  0  0  0  0  0  0  0  0
   33.6028   43.3543   -2.6209 O   0  0  0  0  0  0  0  0  0  0  0  0
   39.3450   42.4688   -8.1197 C   0  0  1  0  0  0  0  0  0  0  0  0
   38.8809   42.6320   -9.4617 O   0  0  0  0  0  0  0  0  0  0  0  0
   38.9346   41.6483   -1.6622 C   0  0  0  0  0  0  0  0  0  0  0  0
   37.5919   42.1912   -1.4129 N   0  0  0  0  0  0  0  0  0  0  0  0
  1  2  1  1  0  0  0
  1  7  1  0  0  0  0
  1 30  1  0  0  0  0
  3  4  1  6  0  0  0
  3  9  1  0  0  0  0
  3 39  1  0  0  0  0
  5 10  1  0  0  0  0
  5 26  1  0  0  0  0
  5 32  1  6  0  0  0
  6 12  1  0  0  0  0
  6 36  1  0  0  0  0
  6 19  1  1  0  0  0
  7  8  1  6  0  0  0
  7 14  1  0  0  0  0
  9 16  1  0  0  0  0
 10 11  1  1  0  0  0
 10 18  1  0  0  0  0
 12 13  1  1  0  0  0
 12 20  1  0  0  0  0
 14 15  1  6  0  0  0
 14 22  1  0  0  0  0
 16 17  1  1  0  0  0
 16 24  1  0  0  0  0
 18 19  1  1  0  0  0
 18 25  1  0  0  0  0
 20 21  1  6  0  0  0
 20 27  1  0  0  0  0
 22 23  1  1  0  0  0
 22 29  1  0  0  0  0
 24  2  1  1  0  0  0
 24 31  1  0  0  0  0
 25 26  1  0  0  0  0
 25 33  1  6  0  0  0
 27 28  1  1  0  0  0
 27 35  1  0  0  0  0
 29 30  1  0  0  0  0
 29 37  1  1  0  0  0
 31 32  1  1  0  0  0
 31 39  1  0  0  0  0
 33 34  1  0  0  0  0
 35 36  1  0  0  0  0
 35 41  1  1  0  0  0
 37 38  1  0  0  0  0
 39 40  1  6  0  0  0
 41 42  1  0  0  0  0
M  END
>  <CHROM.1>
-131.49609919,167.85668896,-91.33008799,-67.52738631,154.45677659,86.73379359
58.59389809,-41.74079131,-153.54430641,37.67721184,42.02997311,-5.09841792
-2.48654198,-1.07901874,2.79154345

>  <Name>
3c44_lig

>  <RI>
0

>  <Rbt.Current_Directory>
/home/itssahil/PROJECTS/Mol_Feturizer/New_Systems/rnas/3c44

>  <Rbt.Executable>
rbdock ($Id: //depot/dev/client3/rdock/2013.1/src/exe/rbdock.cxx#4 $)

>  <Rbt.Library>
libRbt.so (2013.1, Build901 2013/11/27)

>  <Rbt.Parameter_File>
/export/apps/rDock/src/rDock_2013.1_src/data/scripts/dock_solv.prm

>  <Rbt.Receptor>
prm/blind_docking_80.prm

>  <SCORE>
17.0239

>  <SCORE.INTER>
-6.36534

>  <SCORE.INTER.CONST>
1

>  <SCORE.INTER.POLAR>
-0.313965

>  <SCORE.INTER.ROT>
9

>  <SCORE.INTER.SOLV>
23.6079

>  <SCORE.INTER.VDW>
-20.6663

>  <SCORE.INTER.norm>
-0.151556

>  <SCORE.INTRA>
18.7616

>  <SCORE.INTRA.DIHEDRAL>
5.56717

>  <SCORE.INTRA.DIHEDRAL.0>
14.8538

>  <SCORE.INTRA.POLAR>
0

>  <SCORE.INTRA.POLAR.0>
0

>  <SCORE.INTRA.REPUL>
0

>  <SCORE.INTRA.REPUL.0>
0

>  <SCORE.INTRA.SOLV>
7.0202

>  <SCORE.INTRA.SOLV.lig_0>
-100.951

>  <SCORE.INTRA.VDW>
12.468

>  <SCORE.INTRA.VDW.0>
-5.71388

>  <SCORE.INTRA.norm>
0.446706

>  <SCORE.RESTR>
4.62756

>  <SCORE.RESTR.CAVITY>
4.62756

>  <SCORE.RESTR.norm>
0.11018

>  <SCORE.SYSTEM>
0

>  <SCORE.SYSTEM.CONST>
0

>  <SCORE.SYSTEM.DIHEDRAL>
0

>  <SCORE.SYSTEM.SOLV>
0

>  <SCORE.SYSTEM.norm>
0

>  <SCORE.heavy>
42

>  <SCORE.norm>
0.40533

>  <RMSD>
12.124

$$$$
3c44_lig
 OpenBabel11021811463D
libRbt.so/2013.1/901 2013/11/27
 42 45  0  0  0  0  0  0  0  0999 V2000
   38.3099   41.5710   -7.8267 C   0  0  2  0  0  0  0  0  0  0  0  0
   37.5958   42.1022   -6.7000 O   0  0  0  0  0  0  0  0  0  0  0  0
   40.9815   41.5109   -4.3812 C   0  0  2  0  0  0  0  0  0  0  0  0
   42.1179   41.4733   -3.4479 N   0  0  0  0  0  0  0  0  0  0  0  0
   36.7095   42.2018   -3.4607 C   0  0  1  0  0  0  0  0  0  0  0  0
   34.7740   45.6700   -2.3616 C   0  0  1  0  0  0  0  0  0  0  0  0
   37.3031   41.1157   -8.8884 C   0  0  2  0  0  0  0  0  0  0  0  0
   36.3866   42.2086   -9.2441 N   0  0  0  0  0  0  0  0  0  0  0  0
   40.8911   42.8774   -5.0666 C   0  0  0  0  0  0  0  0  0  0  0  0
   35.2165   42.2536   -3.7882 C   0  0  2  0  0  0  0  0  0  0  0  0
   35.0255   42.7263   -5.1230 O   0  0  0  0  0  0  0  0  0  0  0  0
   34.7509   47.0111   -3.1023 C   0  0  2  0  0  0  0  0  0  0  0  0
   36.0831   47.2440   -3.6768 N   0  0  0  0  0  0  0  0  0  0  0  0
   36.4857   39.9162   -8.4025 C   0  0  1  0  0  0  0  0  0  0  0  0
   35.6771   39.4302   -9.4782 O   0  0  0  0  0  0  0  0  0  0  0  0
   39.7914   42.7939   -6.1304 C   0  0  2  0  0  0  0  0  0  0  0  0
   39.6325   44.1087   -6.7700 N   0  0  0  0  0  0  0  0  0  0  0  0
   34.7771   43.3434   -2.8124 C   0  0  2  0  0  0  0  0  0  0  0  0
   35.2294   44.6350   -3.2507 O   0  0  0  0  0  0  0  0  0  0  0  0
   34.4137   48.1647   -2.1486 C   0  0  1  0  0  0  0  0  0  0  0  0
   33.0424   48.0972   -1.7487 O   0  0  0  0  0  0  0  0  0  0  0  0
   37.4251   38.8063   -7.9271 C   0  0  2  0  0  0  0  0  0  0  0  0
   36.6592   37.7334   -7.3727 O   0  0  0  0  0  0  0  0  0  0  0  0
   38.4371   42.3536   -5.5607 C   0  0  2  0  0  0  0  0  0  0  0  0
   35.5482   42.9294   -1.5690 C   0  0  2  0  0  0  0  0  0  0  0  0
   36.7486   42.2674   -2.0231 O   0  0  0  0  0  0  0  0  0  0  0  0
   35.2932   48.1190   -0.8981 C   0  0  2  0  0  0  0  0  0  0  0  0
   36.6434   48.4081   -1.2718 O   0  0  0  0  0  0  0  0  0  0  0  0
   38.3775   39.3608   -6.8667 C   0  0  2  0  0  0  0  0  0  0  0  0
   39.1306   40.4660   -7.4040 O   0  0  0  0  0  0  0  0  0  0  0  0
   38.5053   41.1196   -4.6634 C   0  0  2  0  0  0  0  0  0  0  0  0
   37.2596   40.9713   -3.9628 O   0  0  0  0  0  0  0  0  0  0  0  0
   34.6869   41.9877   -0.7248 C   0  0  0  0  0  0  0  0  0  0  0  0
   33.6512   42.7427   -0.0921 O   0  0  0  0  0  0  0  0  0  0  0  0
   35.1983   46.7245   -0.2734 C   0  0  1  0  0  0  0  0  0  0  0  0
   35.6626   45.7622   -1.2367 O   0  0  0  0  0  0  0  0  0  0  0  0
   39.3260   38.2308   -6.4580 C   0  0  0  0  0  0  0  0  0  0  0  0
   39.6927   37.4297   -7.6347 O   0  0  0  0  0  0  0  0  0  0  0  0
   39.6596   41.2342   -3.6606 C   0  0  1  0  0  0  0  0  0  0  0  0
   39.7609   40.0332   -2.8923 O   0  0  0  0  0  0  0  0  0  0  0  0
   36.0365   46.6021    0.9997 C   0  0  0  0  0  0  0  0  0  0  0  0
   35.3542   45.7062    1.9439 N   0  0  0  0  0  0  0  0  0  0  0  0
  1  2  1  1  0  0  0
  1  7  1  0  0  0  0
  1 30  1  0  0  0  0
  3  4  1  1  0  0  0
  3  9  1  0  0  0  0
  3 39  1  0  0  0  0
  5 10  1  0  0  0  0
  5 26  1  0  0  0  0
  5 32  1  1  0  0  0
  6 12  1  0  0  0  0
  6 36  1  0  0  0  0
  6 19  1  6  0  0  0
  7  8  1  1  0  0  0
  7 14  1  0  0  0  0
  9 16  1  0  0  0  0
 10 11  1  6  0  0  0
 10 18  1  0  0  0  0
 12 13  1  1  0  0  0
 12 20  1  0  0  0  0
 14 15  1  6  0  0  0
 14 22  1  0  0  0  0
 16 17  1  1  0  0  0
 16 24  1  0  0  0  0
 18 19  1  6  0  0  0
 18 25  1  0  0  0  0
 20 21  1  1  0  0  0
 20 27  1  0  0  0  0
 22 23  1  1  0  0  0
 22 29  1  0  0  0  0
 24  2  1  6  0  0  0
 24 31  1  0  0  0  0
 25 26  1  0  0  0  0
 25 33  1  1  0  0  0
 27 28  1  6  0  0  0
 27 35  1  0  0  0  0
 29 30  1  0  0  0  0
 29 37  1  6  0  0  0
 31 32  1  1  0  0  0
 31 39  1  0  0  0  0
 33 34  1  0  0  0  0
 35 36  1  0  0  0  0
 35 41  1  1  0  0  0
 37 38  1  0  0  0  0
 39 40  1  6  0  0  0
 41 42  1  0  0  0  0
M  END
>  <CHROM.1>
170.34322012,134.50658877,-156.93121033,177.79253470,34.07139581,-73.14456113
38.41460609,-41.84135316,145.65810850,36.98696311,42.81687719,-4.21875705
1.13364949,0.59968549,-2.12701887

>  <Name>
3c44_lig

>  <RI>
224

>  <Rbt.Current_Directory>
/home/itssahil/PROJECTS/Mol_Feturizer/New_Systems/rnas/3c44

>  <Rbt.Executable>
rbdock ($Id: //depot/dev/client3/rdock/2013.1/src/exe/rbdock.cxx#4 $)

>  <Rbt.Library>
libRbt.so (2013.1, Build901 2013/11/27)

>  <Rbt.Parameter_File>
/export/apps/rDock/src/rDock_2013.1_src/data/scripts/dock_solv.prm

>  <Rbt.Receptor>
prm/blind_docking_60.prm

>  <SCORE>
35.6273

>  <SCORE.INTER>
11.4407

>  <SCORE.INTER.CONST>
1

>  <SCORE.INTER.POLAR>
-0.673153

>  <SCORE.INTER.ROT>
9

>  <SCORE.INTER.SOLV>
28.3275

>  <SCORE.INTER.VDW>
-9.17148

>  <SCORE.INTER.norm>
0.272399

>  <SCORE.INTRA>
9.00963

>  <SCORE.INTRA.DIHEDRAL>
4.14027

>  <SCORE.INTRA.DIHEDRAL.0>
14.8538

>  <SCORE.INTRA.POLAR>
0

>  <SCORE.INTRA.POLAR.0>
0

>  <SCORE.INTRA.REPUL>
0

>  <SCORE.INTRA.REPUL.0>
0

>  <SCORE.INTRA.SOLV>
-3.62778

>  <SCORE.INTRA.SOLV.lig_0>
-100.951

>  <SCORE.INTRA.VDW>
8.75339

>  <SCORE.INTRA.VDW.0>
-5.71388

>  <SCORE.INTRA.norm>
0.214515

>  <SCORE.RESTR>
15.1769

>  <SCORE.RESTR.CAVITY>
15.1769

>  <SCORE.RESTR.norm>
0.361355

>  <SCORE.SYSTEM>
0

>  <SCORE.SYSTEM.CONST>
0

>  <SCORE.SYSTEM.DIHEDRAL>
0

>  <SCORE.SYSTEM.SOLV>
0

>  <SCORE.SYSTEM.norm>
0

>  <SCORE.heavy>
42

>  <SCORE.norm>
0.848268

>  <RMSD>
12.136

$$$$
3c44_lig
 OpenBabel11021811463D
libRbt.so/2013.1/901 2013/11/27
 42 45  0  0  0  0  0  0  0  0999 V2000
   36.0561   40.4178   -0.4113 C   0  0  2  0  0  0  0  0  0  0  0  0
   35.0347   41.2448   -0.9897 O   0  0  0  0  0  0  0  0  0  0  0  0
   34.7879   45.1017   -2.4906 C   0  0  2  0  0  0  0  0  0  0  0  0
   34.8137   46.5279   -2.8502 N   0  0  0  0  0  0  0  0  0  0  0  0
   38.1267   42.3117   -3.5023 C   0  0  1  0  0  0  0  0  0  0  0  0
   38.8479   42.9073   -6.1140 C   0  0  1  0  0  0  0  0  0  0  0  0
   36.1852   39.1319   -1.2344 C   0  0  2  0  0  0  0  0  0  0  0  0
   36.4202   39.4389   -2.6527 N   0  0  0  0  0  0  0  0  0  0  0  0
   34.2042   44.9093   -1.0879 C   0  0  0  0  0  0  0  0  0  0  0  0
   39.5480   41.7935   -3.2778 C   0  0  2  0  0  0  0  0  0  0  0  0
   40.4172   42.8790   -2.9492 O   0  0  0  0  0  0  0  0  0  0  0  0
   38.6293   42.3096   -7.5079 C   0  0  2  0  0  0  0  0  0  0  0  0
   39.8094   42.6117   -8.3297 N   0  0  0  0  0  0  0  0  0  0  0  0
   34.9300   38.2643   -1.1123 C   0  0  1  0  0  0  0  0  0  0  0  0
   35.1582   37.0110   -1.7636 O   0  0  0  0  0  0  0  0  0  0  0  0
   34.0631   43.4031   -0.8439 C   0  0  2  0  0  0  0  0  0  0  0  0
   33.5616   43.1762    0.5199 N   0  0  0  0  0  0  0  0  0  0  0  0
   39.8726   41.3132   -4.6908 C   0  0  2  0  0  0  0  0  0  0  0  0
   40.0908   42.4271   -5.5721 O   0  0  0  0  0  0  0  0  0  0  0  0
   37.3892   42.9125   -8.1807 C   0  0  1  0  0  0  0  0  0  0  0  0
   36.1981   42.4480   -7.5400 O   0  0  0  0  0  0  0  0  0  0  0  0
   34.6079   38.0223    0.3635 C   0  0  2  0  0  0  0  0  0  0  0  0
   33.3754   37.3056    0.4750 O   0  0  0  0  0  0  0  0  0  0  0  0
   35.3821   42.6402   -1.0197 C   0  0  2  0  0  0  0  0  0  0  0  0
   38.5673   40.6240   -5.0559 C   0  0  2  0  0  0  0  0  0  0  0  0
   37.5195   41.3023   -4.3298 O   0  0  0  0  0  0  0  0  0  0  0  0
   37.4175   44.4406   -8.1170 C   0  0  2  0  0  0  0  0  0  0  0  0
   38.4833   44.9178   -8.9432 O   0  0  0  0  0  0  0  0  0  0  0  0
   34.4909   39.3638    1.0887 C   0  0  2  0  0  0  0  0  0  0  0  0
   35.7163   40.1104    0.9537 O   0  0  0  0  0  0  0  0  0  0  0  0
   36.1348   42.9767   -2.3053 C   0  0  2  0  0  0  0  0  0  0  0  0
   37.4660   42.4409   -2.2312 O   0  0  0  0  0  0  0  0  0  0  0  0
   38.6426   39.1475   -4.6613 C   0  0  0  0  0  0  0  0  0  0  0  0
   37.7046   38.4059   -5.4444 O   0  0  0  0  0  0  0  0  0  0  0  0
   37.6314   44.8744   -6.6645 C   0  0  1  0  0  0  0  0  0  0  0  0
   38.8875   44.3399   -6.2107 O   0  0  0  0  0  0  0  0  0  0  0  0
   34.2169   39.0706    2.5660 C   0  0  0  0  0  0  0  0  0  0  0  0
   32.8755   38.4906    2.7249 O   0  0  0  0  0  0  0  0  0  0  0  0
   36.1920   44.4929   -2.5263 C   0  0  1  0  0  0  0  0  0  0  0  0
   36.8210   44.7813   -3.7770 O   0  0  0  0  0  0  0  0  0  0  0  0
   37.6508   46.3958   -6.5116 C   0  0  0  0  0  0  0  0  0  0  0  0
   36.3494   46.9400   -6.9235 N   0  0  0  0  0  0  0  0  0  0  0  0
  1  2  1  6  0  0  0
  1  7  1  0  0  0  0
  1 30  1  0  0  0  0
  3  4  1  1  0  0  0
  3  9  1  0  0  0  0
  3 39  1  0  0  0  0
  5 10  1  0  0  0  0
  5 26  1  0  0  0  0
  5 32  1  1  0  0  0
  6 12  1  0  0  0  0
  6 36  1  0  0  0  0
  6 19  1  6  0  0  0
  7  8  1  6  0  0  0
  7 14  1  0  0  0  0
  9 16  1  0  0  0  0
 10 11  1  6  0  0  0
 10 18  1  0  0  0  0
 12 13  1  6  0  0  0
 12 20  1  0  0  0  0
 14 15  1  6  0  0  0
 14 22  1  0  0  0  0
 16 17  1  1  0  0  0
 16 24  1  0  0  0  0
 18 19  1  6  0  0  0
 18 25  1  0  0  0  0
 20 21  1  1  0  0  0
 20 27  1  0  0  0  0
 22 23  1  6  0  0  0
 22 29  1  0  0  0  0
 24  2  1  6  0  0  0
 24 31  1  0  0  0  0
 25 26  1  0  0  0  0
 25 33  1  1  0  0  0
 27 28  1  6  0  0  0
 27 35  1  0  0  0  0
 29 30  1  0  0  0  0
 29 37  1  1  0  0  0
 31 32  1  1  0  0  0
 31 39  1  0  0  0  0
 33 34  1  0  0  0  0
 35 36  1  0  0  0  0
 35 41  1  6  0  0  0
 37 38  1  0  0  0  0
 39 40  1  6  0  0  0
 41 42  1  0  0  0  0
M  END
>  <CHROM.1>
-138.83021919,177.47120573,-97.41791074,-85.55058234,-147.36835391,-157.14963337
-68.42583886,161.25246054,62.06966828,36.67752020,41.95938666,-3.30882506
-2.31197627,0.93988962,-0.37735221

>  <Name>
3c44_lig

>  <RI>
0

>  <Rbt.Current_Directory>
/home/itssahil/PROJECTS/Mol_Feturizer/New_Systems/rnas/3c44

>  <Rbt.Executable>
rbdock ($Id: //depot/dev/client3/rdock/2013.1/src/exe/rbdock.cxx#4 $)

>  <Rbt.Library>
libRbt.so (2013.1, Build901 2013/11/27)

>  <Rbt.Parameter_File>
/export/apps/rDock/src/rDock_2013.1_src/data/scripts/dock_solv.prm

>  <Rbt.Receptor>
prm/blind_docking_80.prm

>  <SCORE>
28.0436

>  <SCORE.INTER>
14.4621

>  <SCORE.INTER.CONST>
1

>  <SCORE.INTER.POLAR>
-0.821833

>  <SCORE.INTER.ROT>
9

>  <SCORE.INTER.SOLV>
20.5105

>  <SCORE.INTER.VDW>
-4.05599

>  <SCORE.INTER.norm>
0.344336

>  <SCORE.INTRA>
11.5028

>  <SCORE.INTRA.DIHEDRAL>
6.29643

>  <SCORE.INTRA.DIHEDRAL.0>
14.8538

>  <SCORE.INTRA.POLAR>
0

>  <SCORE.INTRA.POLAR.0>
0

>  <SCORE.INTRA.REPUL>
0

>  <SCORE.INTRA.REPUL.0>
0

>  <SCORE.INTRA.SOLV>
2.64877

>  <SCORE.INTRA.SOLV.lig_0>
-100.951

>  <SCORE.INTRA.VDW>
7.03023

>  <SCORE.INTRA.VDW.0>
-5.71388

>  <SCORE.INTRA.norm>
0.273877

>  <SCORE.RESTR>
2.07872

>  <SCORE.RESTR.CAVITY>
2.07872

>  <SCORE.RESTR.norm>
0.0494934

>  <SCORE.SYSTEM>
0

>  <SCORE.SYSTEM.CONST>
0

>  <SCORE.SYSTEM.DIHEDRAL>
0

>  <SCORE.SYSTEM.SOLV>
0

>  <SCORE.SYSTEM.norm>
0

>  <SCORE.heavy>
42

>  <SCORE.norm>
0.667706

>  <RMSD>
12.168

$$$$
3c44_lig
 OpenBabel11021811463D
libRbt.so/2013.1/901 2013/11/27
 42 45  0  0  0  0  0  0  0  0999 V2000
   38.2656   43.1304   -7.0751 C   0  0  2  0  0  0  0  0  0  0  0  0
   39.2845   42.6138   -6.2052 O   0  0  0  0  0  0  0  0  0  0  0  0
   39.3295   39.2343   -8.6065 C   0  0  2  0  0  0  0  0  0  0  0  0
   39.5362   37.9935   -9.3692 N   0  0  0  0  0  0  0  0  0  0  0  0
   38.2824   41.0480   -4.1349 C   0  0  1  0  0  0  0  0  0  0  0  0
   35.8108   42.9916   -1.2913 C   0  0  1  0  0  0  0  0  0  0  0  0
   37.4822   44.2208   -6.3365 C   0  0  2  0  0  0  0  0  0  0  0  0
   38.3872   45.2583   -5.8213 N   0  0  0  0  0  0  0  0  0  0  0  0
   40.5034   40.1960   -8.8123 C   0  0  0  0  0  0  0  0  0  0  0  0
   37.7733   40.4940   -2.8034 C   0  0  2  0  0  0  0  0  0  0  0  0
   36.4416   39.9995   -2.9575 O   0  0  0  0  0  0  0  0  0  0  0  0
   34.4104   42.3931   -1.4606 C   0  0  2  0  0  0  0  0  0  0  0  0
   33.8864   42.8081   -2.7692 N   0  0  0  0  0  0  0  0  0  0  0  0
   36.6775   43.6367   -5.1727 C   0  0  1  0  0  0  0  0  0  0  0  0
   35.8443   44.6583   -4.6164 O   0  0  0  0  0  0  0  0  0  0  0  0
   40.1505   41.5174   -8.1214 C   0  0  2  0  0  0  0  0  0  0  0  0
   41.2824   42.4483   -8.2450 N   0  0  0  0  0  0  0  0  0  0  0  0
   37.7277   41.7851   -1.9885 C   0  0  2  0  0  0  0  0  0  0  0  0
   36.6344   42.6173   -2.4095 O   0  0  0  0  0  0  0  0  0  0  0  0
   33.4590   42.8914   -0.3649 C   0  0  1  0  0  0  0  0  0  0  0  0
   33.8060   42.3157    0.8972 O   0  0  0  0  0  0  0  0  0  0  0  0
   35.8066   42.4822   -5.6715 C   0  0  2  0  0  0  0  0  0  0  0  0
   35.1411   41.8692   -4.5641 O   0  0  0  0  0  0  0  0  0  0  0  0
   39.8104   41.3461   -6.6356 C   0  0  2  0  0  0  0  0  0  0  0  0
   39.0430   42.4233   -2.4067 C   0  0  2  0  0  0  0  0  0  0  0  0
   39.3187   41.9702   -3.7499 O   0  0  0  0  0  0  0  0  0  0  0  0
   33.5128   44.4151   -0.2415 C   0  0  2  0  0  0  0  0  0  0  0  0
   32.9561   44.9946   -1.4249 O   0  0  0  0  0  0  0  0  0  0  0  0
   36.6832   41.4493   -6.3815 C   0  0  2  0  0  0  0  0  0  0  0  0
   37.3863   42.0643   -7.4791 O   0  0  0  0  0  0  0  0  0  0  0  0
   38.8127   40.2267   -6.3456 C   0  0  2  0  0  0  0  0  0  0  0  0
   38.7896   39.9642   -4.9330 O   0  0  0  0  0  0  0  0  0  0  0  0
   40.1493   41.9900   -1.4424 C   0  0  0  0  0  0  0  0  0  0  0  0
   39.5551   41.3994   -0.2844 O   0  0  0  0  0  0  0  0  0  0  0  0
   34.9707   44.8493   -0.0684 C   0  0  1  0  0  0  0  0  0  0  0  0
   35.7124   44.4231   -1.2250 O   0  0  0  0  0  0  0  0  0  0  0  0
   35.7650   40.3412   -6.9033 C   0  0  0  0  0  0  0  0  0  0  0  0
   36.0179   39.0908   -6.1730 O   0  0  0  0  0  0  0  0  0  0  0  0
   39.1837   38.9501   -7.1095 C   0  0  1  0  0  0  0  0  0  0  0  0
   38.1899   37.9454   -6.8946 O   0  0  0  0  0  0  0  0  0  0  0  0
   35.1092   46.3646    0.0840 C   0  0  0  0  0  0  0  0  0  0  0  0
   36.4372   46.6764    0.6307 N   0  0  0  0  0  0  0  0  0  0  0  0
  1  2  1  1  0  0  0
  1  7  1  0  0  0  0
  1 30  1  0  0  0  0
  3  4  1  6  0  0  0
  3  9  1  0  0  0  0
  3 39  1  0  0  0  0
  5 10  1  0  0  0  0
  5 26  1  0  0  0  0
  5 32  1  6  0  0  0
  6 12  1  0  0  0  0
  6 36  1  0  0  0  0
  6 19  1  6  0  0  0
  7  8  1  1  0  0  0
  7 14  1  0  0  0  0
  9 16  1  0  0  0  0
 10 11  1  6  0  0  0
 10 18  1  0  0  0  0
 12 13  1  6  0  0  0
 12 20  1  0  0  0  0
 14 15  1  6  0  0  0
 14 22  1  0  0  0  0
 16 17  1  1  0  0  0
 16 24  1  0  0  0  0
 18 19  1  6  0  0  0
 18 25  1  0  0  0  0
 20 21  1  1  0  0  0
 20 27  1  0  0  0  0
 22 23  1  1  0  0  0
 22 29  1  0  0  0  0
 24  2  1  6  0  0  0
 24 31  1  0  0  0  0
 25 26  1  0  0  0  0
 25 33  1  1  0  0  0
 27 28  1  6  0  0  0
 27 35  1  0  0  0  0
 29 30  1  0  0  0  0
 29 37  1  6  0  0  0
 31 32  1  1  0  0  0
 31 39  1  0  0  0  0
 33 34  1  0  0  0  0
 35 36  1  0  0  0  0
 35 41  1  6  0  0  0
 37 38  1  0  0  0  0
 39 40  1  6  0  0  0
 41 42  1  0  0  0  0
M  END
>  <CHROM.1>
162.75592230,157.00789461,-115.68603666,126.92956717,49.21416390,-13.92654336
-112.21147109,65.71356908,163.52767549,37.20207399,42.11928797,-4.18472965
-0.82730258,0.80346922,0.48354151

>  <Name>
3c44_lig

>  <RI>
224

>  <Rbt.Current_Directory>
/home/itssahil/PROJECTS/Mol_Feturizer/New_Systems/rnas/3c44

>  <Rbt.Executable>
rbdock ($Id: //depot/dev/client3/rdock/2013.1/src/exe/rbdock.cxx#4 $)

>  <Rbt.Library>
libRbt.so (2013.1, Build901 2013/11/27)

>  <Rbt.Parameter_File>
/export/apps/rDock/src/rDock_2013.1_src/data/scripts/dock_solv.prm

>  <Rbt.Receptor>
prm/blind_docking_60.prm

>  <SCORE>
31.6367

>  <SCORE.INTER>
4.57199

>  <SCORE.INTER.CONST>
1

>  <SCORE.INTER.POLAR>
-0.476266

>  <SCORE.INTER.ROT>
9

>  <SCORE.INTER.SOLV>
29.5781

>  <SCORE.INTER.VDW>
-14.8238

>  <SCORE.INTER.norm>
0.108857

>  <SCORE.INTRA>
22.6658

>  <SCORE.INTRA.DIHEDRAL>
13.9938

>  <SCORE.INTRA.DIHEDRAL.0>
14.8538

>  <SCORE.INTRA.POLAR>
0

>  <SCORE.INTRA.POLAR.0>
0

>  <SCORE.INTRA.REPUL>
0.105836

>  <SCORE.INTRA.REPUL.0>
0

>  <SCORE.INTRA.SOLV>
3.03454

>  <SCORE.INTRA.SOLV.lig_0>
-100.951

>  <SCORE.INTRA.VDW>
13.6225

>  <SCORE.INTRA.VDW.0>
-5.71388

>  <SCORE.INTRA.norm>
0.539663

>  <SCORE.RESTR>
4.39889

>  <SCORE.RESTR.CAVITY>
4.39889

>  <SCORE.RESTR.norm>
0.104735

>  <SCORE.SYSTEM>
0

>  <SCORE.SYSTEM.CONST>
0

>  <SCORE.SYSTEM.DIHEDRAL>
0

>  <SCORE.SYSTEM.SOLV>
0

>  <SCORE.SYSTEM.norm>
0

>  <SCORE.heavy>
42

>  <SCORE.norm>
0.753255

>  <RMSD>
12.169

$$$$
3c44_lig
 OpenBabel11021811463D
libRbt.so/2013.1/901 2013/11/27
 42 45  0  0  0  0  0  0  0  0999 V2000
   36.8920   42.3817   -1.5072 C   0  0  2  0  0  0  0  0  0  0  0  0
   36.2922   41.1830   -2.0220 O   0  0  0  0  0  0  0  0  0  0  0  0
   34.8804   39.9139    1.6639 C   0  0  2  0  0  0  0  0  0  0  0  0
   34.1883   39.4477    2.8753 N   0  0  0  0  0  0  0  0  0  0  0  0
   36.3435   38.6628   -2.8773 C   0  0  1  0  0  0  0  0  0  0  0  0
   38.3301   39.2777   -6.4201 C   0  0  1  0  0  0  0  0  0  0  0  0
   36.8270   43.4746   -2.5792 C   0  0  2  0  0  0  0  0  0  0  0  0
   35.4466   43.6697   -3.0455 N   0  0  0  0  0  0  0  0  0  0  0  0
   34.1965   41.1619    1.0982 C   0  0  0  0  0  0  0  0  0  0  0  0
   36.3158   37.4807   -3.8473 C   0  0  2  0  0  0  0  0  0  0  0  0
   37.3830   36.5787   -3.5484 O   0  0  0  0  0  0  0  0  0  0  0  0
   39.5605   38.6315   -7.0652 C   0  0  2  0  0  0  0  0  0  0  0  0
   40.6507   38.6294   -6.0800 N   0  0  0  0  0  0  0  0  0  0  0  0
   37.7157   43.1324   -3.7776 C   0  0  1  0  0  0  0  0  0  0  0  0
   37.7469   44.2469   -4.6745 O   0  0  0  0  0  0  0  0  0  0  0  0
   35.0549   41.6795   -0.0608 C   0  0  2  0  0  0  0  0  0  0  0  0
   34.3970   42.8449   -0.6707 N   0  0  0  0  0  0  0  0  0  0  0  0
   36.6378   38.2099   -5.1502 C   0  0  2  0  0  0  0  0  0  0  0  0
   38.0197   38.6023   -5.1885 O   0  0  0  0  0  0  0  0  0  0  0  0
   40.0129   39.4163   -8.3036 C   0  0  1  0  0  0  0  0  0  0  0  0
   39.0763   39.2481   -9.3709 O   0  0  0  0  0  0  0  0  0  0  0  0
   39.1351   42.8214   -3.2993 C   0  0  2  0  0  0  0  0  0  0  0  0
   39.9330   42.3959   -4.4072 O   0  0  0  0  0  0  0  0  0  0  0  0
   35.2976   40.6235   -1.1465 C   0  0  2  0  0  0  0  0  0  0  0  0
   35.7625   39.4442   -5.0006 C   0  0  2  0  0  0  0  0  0  0  0  0
   35.6461   39.7046   -3.5849 O   0  0  0  0  0  0  0  0  0  0  0  0
   40.1405   40.9085   -7.9923 C   0  0  2  0  0  0  0  0  0  0  0  0
   41.2308   41.1000   -7.0864 O   0  0  0  0  0  0  0  0  0  0  0  0
   39.0887   41.7159   -2.2434 C   0  0  2  0  0  0  0  0  0  0  0  0
   38.2585   42.1199   -1.1367 O   0  0  0  0  0  0  0  0  0  0  0  0
   35.7566   39.2684   -0.6120 C   0  0  2  0  0  0  0  0  0  0  0  0
   35.6723   38.2900   -1.6610 O   0  0  0  0  0  0  0  0  0  0  0  0
   34.3915   39.1757   -5.6248 C   0  0  0  0  0  0  0  0  0  0  0  0
   34.5429   39.0242   -7.0380 O   0  0  0  0  0  0  0  0  0  0  0  0
   38.8326   41.4000   -7.3664 C   0  0  1  0  0  0  0  0  0  0  0  0
   38.6039   40.6623   -6.1528 O   0  0  0  0  0  0  0  0  0  0  0  0
   40.5214   41.4736   -1.7616 C   0  0  0  0  0  0  0  0  0  0  0  0
   41.2966   40.7906   -2.8073 O   0  0  0  0  0  0  0  0  0  0  0  0
   34.8997   38.8312    0.5820 C   0  0  1  0  0  0  0  0  0  0  0  0
   35.4015   37.6064    1.1215 O   0  0  0  0  0  0  0  0  0  0  0  0
   38.8710   42.8942   -7.0436 C   0  0  0  0  0  0  0  0  0  0  0  0
   38.0171   43.6171   -7.9965 N   0  0  0  0  0  0  0  0  0  0  0  0
  1  2  1  6  0  0  0
  1  7  1  0  0  0  0
  1 30  1  0  0  0  0
  3  4  1  1  0  0  0
  3  9  1  0  0  0  0
  3 39  1  0  0  0  0
  5 10  1  0  0  0  0
  5 26  1  0  0  0  0
  5 32  1  1  0  0  0
  6 12  1  0  0  0  0
  6 36  1  0  0  0  0
  6 19  1  1  0  0  0
  7  8  1  6  0  0  0
  7 14  1  0  0  0  0
  9 16  1  0  0  0  0
 10 11  1  1  0  0  0
 10 18  1  0  0  0  0
 12 13  1  1  0  0  0
 12 20  1  0  0  0  0
 14 15  1  6  0  0  0
 14 22  1  0  0  0  0
 16 17  1  6  0  0  0
 16 24  1  0  0  0  0
 18 19  1  1  0  0  0
 18 25  1  0  0  0  0
 20 21  1  6  0  0  0
 20 27  1  0  0  0  0
 22 23  1  6  0  0  0
 22 29  1  0  0  0  0
 24  2  1  6  0  0  0
 24 31  1  0  0  0  0
 25 26  1  0  0  0  0
 25 33  1  1  0  0  0
 27 28  1  1  0  0  0
 27 35  1  0  0  0  0
 29 30  1  0  0  0  0
 29 37  1  1  0  0  0
 31 32  1  6  0  0  0
 31 39  1  0  0  0  0
 33 34  1  0  0  0  0
 35 36  1  0  0  0  0
 35 41  1  1  0  0  0
 37 38  1  0  0  0  0
 39 40  1  1  0  0  0
 41 42  1  0  0  0  0
M  END
>  <CHROM.1>
-128.86940079,173.60234439,-128.54126099,179.42420501,10.07802864,-66.64240509
-72.08376340,52.54282238,107.62374892,37.34065757,40.50297408,-3.66387563
-2.57871385,-0.95718046,-2.42425056

>  <Name>
3c44_lig

>  <RI>
224

>  <Rbt.Current_Directory>
/home/itssahil/PROJECTS/Mol_Feturizer/New_Systems/rnas/3c44

>  <Rbt.Executable>
rbdock ($Id: //depot/dev/client3/rdock/2013.1/src/exe/rbdock.cxx#4 $)

>  <Rbt.Library>
libRbt.so (2013.1, Build901 2013/11/27)

>  <Rbt.Parameter_File>
/export/apps/rDock/src/rDock_2013.1_src/data/scripts/dock_solv.prm

>  <Rbt.Receptor>
prm/blind_docking_60.prm

>  <SCORE>
50.652

>  <SCORE.INTER>
22.3617

>  <SCORE.INTER.CONST>
1

>  <SCORE.INTER.POLAR>
-1.04366

>  <SCORE.INTER.ROT>
9

>  <SCORE.INTER.SOLV>
22.8675

>  <SCORE.INTER.VDW>
1.16418

>  <SCORE.INTER.norm>
0.532422

>  <SCORE.INTRA>
23.3104

>  <SCORE.INTRA.DIHEDRAL>
11.7994

>  <SCORE.INTRA.DIHEDRAL.0>
14.8538

>  <SCORE.INTRA.POLAR>
0

>  <SCORE.INTRA.POLAR.0>
0

>  <SCORE.INTRA.REPUL>
0.45643

>  <SCORE.INTRA.REPUL.0>
0

>  <SCORE.INTRA.SOLV>
1.39471

>  <SCORE.INTRA.SOLV.lig_0>
-100.951

>  <SCORE.INTRA.VDW>
14.4312

>  <SCORE.INTRA.VDW.0>
-5.71388

>  <SCORE.INTRA.norm>
0.555011

>  <SCORE.RESTR>
4.97981

>  <SCORE.RESTR.CAVITY>
4.97981

>  <SCORE.RESTR.norm>
0.118567

>  <SCORE.SYSTEM>
0

>  <SCORE.SYSTEM.CONST>
0

>  <SCORE.SYSTEM.DIHEDRAL>
0

>  <SCORE.SYSTEM.SOLV>
0

>  <SCORE.SYSTEM.norm>
0

>  <SCORE.heavy>
42

>  <SCORE.norm>
1.206

>  <RMSD>
12.230

$$$$
3c44_lig
 OpenBabel11021811463D
libRbt.so/2013.1/901 2013/11/27
 42 45  0  0  0  0  0  0  0  0999 V2000
   40.2125   41.2699   -5.8912 C   0  0  2  0  0  0  0  0  0  0  0  0
   39.4930   40.4130   -4.9913 O   0  0  0  0  0  0  0  0  0  0  0  0
   36.9116   39.5039   -8.1058 C   0  0  2  0  0  0  0  0  0  0  0  0
   35.9688   38.9925   -9.1125 N   0  0  0  0  0  0  0  0  0  0  0  0
   36.8818   41.6040   -3.6954 C   0  0  1  0  0  0  0  0  0  0  0  0
   35.2611   44.1676   -1.8080 C   0  0  1  0  0  0  0  0  0  0  0  0
   41.0186   42.2873   -5.0769 C   0  0  2  0  0  0  0  0  0  0  0  0
   41.8855   41.6094   -4.1022 N   0  0  0  0  0  0  0  0  0  0  0  0
   38.0955   38.5469   -7.9397 C   0  0  0  0  0  0  0  0  0  0  0  0
   36.1942   41.5270   -2.3314 C   0  0  2  0  0  0  0  0  0  0  0  0
   34.8424   41.9771   -2.4400 O   0  0  0  0  0  0  0  0  0  0  0  0
   35.0317   45.6799   -1.7186 C   0  0  2  0  0  0  0  0  0  0  0  0
   35.9153   46.2198   -0.6760 N   0  0  0  0  0  0  0  0  0  0  0  0
   40.0992   43.2611   -4.3356 C   0  0  1  0  0  0  0  0  0  0  0  0
   40.8913   44.2824   -3.7218 O   0  0  0  0  0  0  0  0  0  0  0  0
   39.1059   39.2133   -6.9999 C   0  0  2  0  0  0  0  0  0  0  0  0
   40.2317   38.2961   -6.7669 N   0  0  0  0  0  0  0  0  0  0  0  0
   37.0040   42.5786   -1.5757 C   0  0  2  0  0  0  0  0  0  0  0  0
   36.6597   43.9026   -2.0154 O   0  0  0  0  0  0  0  0  0  0  0  0
   33.5770   45.9985   -1.3493 C   0  0  1  0  0  0  0  0  0  0  0  0
   32.7067   45.6963   -2.4431 O   0  0  0  0  0  0  0  0  0  0  0  0
   39.1166   43.8985   -5.3198 C   0  0  2  0  0  0  0  0  0  0  0  0
   38.1898   44.7223   -4.6076 O   0  0  0  0  0  0  0  0  0  0  0  0
   38.4991   39.6061   -5.6471 C   0  0  2  0  0  0  0  0  0  0  0  0
   38.4093   42.2362   -2.0450 C   0  0  2  0  0  0  0  0  0  0  0  0
   38.2824   41.6777   -3.3706 O   0  0  0  0  0  0  0  0  0  0  0  0
   33.1305   45.1920   -0.1287 C   0  0  2  0  0  0  0  0  0  0  0  0
   33.8510   45.6523    1.0181 O   0  0  0  0  0  0  0  0  0  0  0  0
   38.3597   42.8016   -6.0702 C   0  0  2  0  0  0  0  0  0  0  0  0
   39.2866   41.9435   -6.7642 O   0  0  0  0  0  0  0  0  0  0  0  0
   37.1769   40.3637   -5.7490 C   0  0  2  0  0  0  0  0  0  0  0  0
   36.5616   40.4233   -4.4518 O   0  0  0  0  0  0  0  0  0  0  0  0
   39.0371   41.2273   -1.0810 C   0  0  0  0  0  0  0  0  0  0  0  0
   40.4577   41.3842   -1.1000 O   0  0  0  0  0  0  0  0  0  0  0  0
   33.4163   43.7091   -0.3801 C   0  0  1  0  0  0  0  0  0  0  0  0
   34.8308   43.5472   -0.5859 O   0  0  0  0  0  0  0  0  0  0  0  0
   37.4269   43.4845   -7.0737 C   0  0  0  0  0  0  0  0  0  0  0  0
   36.6077   42.4792   -7.7660 O   0  0  0  0  0  0  0  0  0  0  0  0
   36.2312   39.6843   -6.7464 C   0  0  1  0  0  0  0  0  0  0  0  0
   35.0378   40.4572   -6.8930 O   0  0  0  0  0  0  0  0  0  0  0  0
   32.9772   42.8284    0.7904 C   0  0  0  0  0  0  0  0  0  0  0  0
   33.5152   41.4735    0.6047 N   0  0  0  0  0  0  0  0  0  0  0  0
  1  2  1  1  0  0  0
  1  7  1  0  0  0  0
  1 30  1  0  0  0  0
  3  4  1  6  0  0  0
  3  9  1  0  0  0  0
  3 39  1  0  0  0  0
  5 10  1  0  0  0  0
  5 26  1  0  0  0  0
  5 32  1  6  0  0  0
  6 12  1  0  0  0  0
  6 36  1  0  0  0  0
  6 19  1  1  0  0  0
  7  8  1  1  0  0  0
  7 14  1  0  0  0  0
  9 16  1  0  0  0  0
 10 11  1  6  0  0  0
 10 18  1  0  0  0  0
 12 13  1  1  0  0  0
 12 20  1  0  0  0  0
 14 15  1  6  0  0  0
 14 22  1  0  0  0  0
 16 17  1  1  0  0  0
 16 24  1  0  0  0  0
 18 19  1  6  0  0  0
 18 25  1  0  0  0  0
 20 21  1  6  0  0  0
 20 27  1  0  0  0  0
 22 23  1  1  0  0  0
 22 29  1  0  0  0  0
 24  2  1  6  0  0  0
 24 31  1  0  0  0  0
 25 26  1  0  0  0  0
 25 33  1  1  0  0  0
 27 28  1  1  0  0  0
 27 35  1  0  0  0  0
 29 30  1  0  0  0  0
 29 37  1  6  0  0  0
 31 32  1  1  0  0  0
 31 39  1  0  0  0  0
 33 34  1  0  0  0  0
 35 36  1  0  0  0  0
 35 41  1  1  0  0  0
 37 38  1  0  0  0  0
 39 40  1  6  0  0  0
 41 42  1  0  0  0  0
M  END
>  <CHROM.1>
167.97865693,-178.68009763,156.60648070,59.33401298,37.00182227,-152.29937622
-176.36412199,92.83754501,-168.84955296,37.09751440,42.30134392,-3.80543666
-1.02070239,0.01007777,0.98119650

>  <Name>
3c44_lig

>  <RI>
224

>  <Rbt.Current_Directory>
/home/itssahil/PROJECTS/Mol_Feturizer/New_Systems/rnas/3c44

>  <Rbt.Executable>
rbdock ($Id: //depot/dev/client3/rdock/2013.1/src/exe/rbdock.cxx#4 $)

>  <Rbt.Library>
libRbt.so (2013.1, Build901 2013/11/27)

>  <Rbt.Parameter_File>
/export/apps/rDock/src/rDock_2013.1_src/data/scripts/dock_solv.prm

>  <Rbt.Receptor>
prm/blind_docking_60.prm

>  <SCORE>
25.5714

>  <SCORE.INTER>
4.07558

>  <SCORE.INTER.CONST>
1

>  <SCORE.INTER.POLAR>
-0.583108

>  <SCORE.INTER.ROT>
9

>  <SCORE.INTER.SOLV>
30.5928

>  <SCORE.INTER.VDW>
-15.1369

>  <SCORE.INTER.norm>
0.0970376

>  <SCORE.INTRA>
17.0921

>  <SCORE.INTRA.DIHEDRAL>
-2.09377

>  <SCORE.INTRA.DIHEDRAL.0>
14.8538

>  <SCORE.INTRA.POLAR>
0

>  <SCORE.INTRA.POLAR.0>
0

>  <SCORE.INTRA.REPUL>
0.29578

>  <SCORE.INTRA.REPUL.0>
0

>  <SCORE.INTRA.SOLV>
3.4162

>  <SCORE.INTRA.SOLV.lig_0>
-100.951

>  <SCORE.INTRA.VDW>
14.9519

>  <SCORE.INTRA.VDW.0>
-5.71388

>  <SCORE.INTRA.norm>
0.406954

>  <SCORE.RESTR>
4.40378

>  <SCORE.RESTR.CAVITY>
4.40378

>  <SCORE.RESTR.norm>
0.104852

>  <SCORE.SYSTEM>
0

>  <SCORE.SYSTEM.CONST>
0

>  <SCORE.SYSTEM.DIHEDRAL>
0

>  <SCORE.SYSTEM.SOLV>
0

>  <SCORE.SYSTEM.norm>
0

>  <SCORE.heavy>
42

>  <SCORE.norm>
0.608843

>  <RMSD>
12.320

$$$$
3c44_lig
 OpenBabel11021811463D
libRbt.so/2013.1/901 2013/11/27
 42 45  0  0  0  0  0  0  0  0999 V2000
   39.7855   44.0081   -4.7768 C   0  0  2  0  0  0  0  0  0  0  0  0
   38.5143   43.5657   -5.2769 O   0  0  0  0  0  0  0  0  0  0  0  0
   37.9423   47.3278   -6.9226 C   0  0  2  0  0  0  0  0  0  0  0  0
   37.5360   48.6011   -7.5372 N   0  0  0  0  0  0  0  0  0  0  0  0
   36.0393   44.5529   -3.8169 C   0  0  1  0  0  0  0  0  0  0  0  0
   35.7605   41.1941   -4.9947 C   0  0  1  0  0  0  0  0  0  0  0  0
   40.8990   43.4245   -5.6529 C   0  0  2  0  0  0  0  0  0  0  0  0
   40.6825   43.7598   -7.0678 N   0  0  0  0  0  0  0  0  0  0  0  0
   37.6253   46.1539   -7.8535 C   0  0  0  0  0  0  0  0  0  0  0  0
   36.6012   43.2599   -3.2240 C   0  0  2  0  0  0  0  0  0  0  0  0
   37.4191   42.5954   -4.1889 O   0  0  0  0  0  0  0  0  0  0  0  0
   35.1048   40.5351   -6.2127 C   0  0  2  0  0  0  0  0  0  0  0  0
   33.8950   39.8333   -5.7623 N   0  0  0  0  0  0  0  0  0  0  0  0
   40.9824   41.9031   -5.5070 C   0  0  1  0  0  0  0  0  0  0  0  0
   42.1299   41.4241   -6.2149 O   0  0  0  0  0  0  0  0  0  0  0  0
   38.2126   44.8868   -7.2230 C   0  0  2  0  0  0  0  0  0  0  0  0
   37.8746   43.7255   -8.0598 N   0  0  0  0  0  0  0  0  0  0  0  0
   35.3044   42.4716   -3.0513 C   0  0  2  0  0  0  0  0  0  0  0  0
   34.8014   42.0295   -4.3229 O   0  0  0  0  0  0  0  0  0  0  0  0
   36.0505   39.5213   -6.8699 C   0  0  1  0  0  0  0  0  0  0  0  0
   37.1289   40.1954   -7.5235 O   0  0  0  0  0  0  0  0  0  0  0  0
   41.1012   41.5291   -4.0284 C   0  0  2  0  0  0  0  0  0  0  0  0
   41.0680   40.1064   -3.8885 O   0  0  0  0  0  0  0  0  0  0  0  0
   37.7049   44.6345   -5.7978 C   0  0  2  0  0  0  0  0  0  0  0  0
   34.3943   43.5541   -2.4929 C   0  0  2  0  0  0  0  0  0  0  0  0
   34.8638   44.8110   -3.0268 O   0  0  0  0  0  0  0  0  0  0  0  0
   36.6298   38.5576   -5.8328 C   0  0  2  0  0  0  0  0  0  0  0  0
   35.5773   37.7258   -5.3363 O   0  0  0  0  0  0  0  0  0  0  0  0
   39.9415   42.1505   -3.2485 C   0  0  2  0  0  0  0  0  0  0  0  0
   39.9442   43.5826   -3.4105 O   0  0  0  0  0  0  0  0  0  0  0  0
   37.7756   45.8545   -4.8816 C   0  0  2  0  0  0  0  0  0  0  0  0
   37.0205   45.5964   -3.6866 O   0  0  0  0  0  0  0  0  0  0  0  0
   34.4681   43.5440   -0.9645 C   0  0  0  0  0  0  0  0  0  0  0  0
   33.4709   44.4249   -0.4425 O   0  0  0  0  0  0  0  0  0  0  0  0
   37.2532   39.3683   -4.6936 C   0  0  1  0  0  0  0  0  0  0  0  0
   36.2245   40.1757   -4.0941 O   0  0  0  0  0  0  0  0  0  0  0  0
   40.1289   41.7905   -1.7725 C   0  0  0  0  0  0  0  0  0  0  0  0
   38.8896   42.0548   -1.0274 O   0  0  0  0  0  0  0  0  0  0  0  0
   37.2298   47.1019   -5.5867 C   0  0  1  0  0  0  0  0  0  0  0  0
   37.3873   48.2470   -4.7460 O   0  0  0  0  0  0  0  0  0  0  0  0
   37.8764   38.4745   -3.6206 C   0  0  0  0  0  0  0  0  0  0  0  0
   36.8211   37.6714   -2.9873 N   0  0  0  0  0  0  0  0  0  0  0  0
  1  2  1  6  0  0  0
  1  7  1  0  0  0  0
  1 30  1  0  0  0  0
  3  4  1  6  0  0  0
  3  9  1  0  0  0  0
  3 39  1  0  0  0  0
  5 10  1  0  0  0  0
  5 26  1  0  0  0  0
  5 32  1  1  0  0  0
  6 12  1  0  0  0  0
  6 36  1  0  0  0  0
  6 19  1  1  0  0  0
  7  8  1  6  0  0  0
  7 14  1  0  0  0  0
  9 16  1  0  0  0  0
 10 11  1  6  0  0  0
 10 18  1  0  0  0  0
 12 13  1  1  0  0  0
 12 20  1  0  0  0  0
 14 15  1  6  0  0  0
 14 22  1  0  0  0  0
 16 17  1  6  0  0  0
 16 24  1  0  0  0  0
 18 19  1  6  0  0  0
 18 25  1  0  0  0  0
 20 21  1  1  0  0  0
 20 27  1  0  0  0  0
 22 23  1  6  0  0  0
 22 29  1  0  0  0  0
 24  2  1  1  0  0  0
 24 31  1  0  0  0  0
 25 26  1  0  0  0  0
 25 33  1  1  0  0  0
 27 28  1  1  0  0  0
 27 35  1  0  0  0  0
 29 30  1  0  0  0  0
 29 37  1  1  0  0  0
 31 32  1  1  0  0  0
 31 39  1  0  0  0  0
 33 34  1  0  0  0  0
 35 36  1  0  0  0  0
 35 41  1  1  0  0  0
 37 38  1  0  0  0  0
 39 40  1  1  0  0  0
 41 42  1  0  0  0  0
M  END
>  <CHROM.1>
-114.18375462,99.75535982,169.66271470,59.20209020,81.68237057,-171.63972671
-165.53770141,-20.96306904,-63.81027755,37.51934024,42.74742697,-4.66728279
-1.42232001,-0.47078902,3.03263557

>  <Name>
3c44_lig

>  <RI>
0

>  <Rbt.Current_Directory>
/home/itssahil/PROJECTS/Mol_Feturizer/New_Systems/rnas/3c44

>  <Rbt.Executable>
rbdock ($Id: //depot/dev/client3/rdock/2013.1/src/exe/rbdock.cxx#4 $)

>  <Rbt.Library>
libRbt.so (2013.1, Build901 2013/11/27)

>  <Rbt.Parameter_File>
/export/apps/rDock/src/rDock_2013.1_src/data/scripts/dock_solv.prm

>  <Rbt.Receptor>
prm/blind_docking_100.prm

>  <SCORE>
32.1727

>  <SCORE.INTER>
-4.54479

>  <SCORE.INTER.CONST>
1

>  <SCORE.INTER.POLAR>
-0.403372

>  <SCORE.INTER.ROT>
9

>  <SCORE.INTER.SOLV>
26.7217

>  <SCORE.INTER.VDW>
-20.1925

>  <SCORE.INTER.norm>
-0.108209

>  <SCORE.INTRA>
35.0972

>  <SCORE.INTRA.DIHEDRAL>
6.69487

>  <SCORE.INTRA.DIHEDRAL.0>
14.8538

>  <SCORE.INTRA.POLAR>
0

>  <SCORE.INTRA.POLAR.0>
0

>  <SCORE.INTRA.REPUL>
0.221422

>  <SCORE.INTRA.REPUL.0>
0

>  <SCORE.INTRA.SOLV>
3.69149

>  <SCORE.INTRA.SOLV.lig_0>
-100.951

>  <SCORE.INTRA.VDW>
28.7969

>  <SCORE.INTRA.VDW.0>
-5.71388

>  <SCORE.INTRA.norm>
0.835648

>  <SCORE.RESTR>
1.62026

>  <SCORE.RESTR.CAVITY>
1.62026

>  <SCORE.RESTR.norm>
0.0385776

>  <SCORE.SYSTEM>
0

>  <SCORE.SYSTEM.CONST>
0

>  <SCORE.SYSTEM.DIHEDRAL>
0

>  <SCORE.SYSTEM.SOLV>
0

>  <SCORE.SYSTEM.norm>
0

>  <SCORE.heavy>
42

>  <SCORE.norm>
0.766017

>  <RMSD>
12.344

$$$$
3c44_lig
 OpenBabel11021811463D
libRbt.so/2013.1/901 2013/11/27
 42 45  0  0  0  0  0  0  0  0999 V2000
   38.5010   43.8642   -7.5179 C   0  0  2  0  0  0  0  0  0  0  0  0
   39.7139   43.8357   -6.7499 O   0  0  0  0  0  0  0  0  0  0  0  0
   41.4510   40.8081   -4.5126 C   0  0  2  0  0  0  0  0  0  0  0  0
   41.8941   39.7489   -3.5929 N   0  0  0  0  0  0  0  0  0  0  0  0
   37.4170   41.3253   -6.1371 C   0  0  1  0  0  0  0  0  0  0  0  0
   35.3129   42.0762   -3.7922 C   0  0  1  0  0  0  0  0  0  0  0  0
   38.7693   44.5690   -8.8518 C   0  0  2  0  0  0  0  0  0  0  0  0
   39.8916   43.9381   -9.5613 N   0  0  0  0  0  0  0  0  0  0  0  0
   41.1658   42.1032   -3.7467 C   0  0  0  0  0  0  0  0  0  0  0  0
   36.1805   41.4170   -7.0325 C   0  0  2  0  0  0  0  0  0  0  0  0
   36.0598   42.7377   -7.5645 O   0  0  0  0  0  0  0  0  0  0  0  0
   34.3895   42.8385   -2.8362 C   0  0  2  0  0  0  0  0  0  0  0  0
   34.4383   44.2647   -3.1867 N   0  0  0  0  0  0  0  0  0  0  0  0
   39.0804   46.0534   -8.6444 C   0  0  1  0  0  0  0  0  0  0  0  0
   39.1662   46.6993   -9.9183 O   0  0  0  0  0  0  0  0  0  0  0  0
   40.8632   43.1970   -4.7763 C   0  0  2  0  0  0  0  0  0  0  0  0
   40.5233   44.4443   -4.0752 N   0  0  0  0  0  0  0  0  0  0  0  0
   35.0888   41.2064   -5.9853 C   0  0  2  0  0  0  0  0  0  0  0  0
   34.9479   42.3689   -5.1524 O   0  0  0  0  0  0  0  0  0  0  0  0
   34.8401   42.6704   -1.3793 C   0  0  1  0  0  0  0  0  0  0  0  0
   34.5887   41.3364   -0.9298 O   0  0  0  0  0  0  0  0  0  0  0  0
   37.9726   46.7049   -7.8146 C   0  0  2  0  0  0  0  0  0  0  0  0
   38.3207   48.0625   -7.5302 O   0  0  0  0  0  0  0  0  0  0  0  0
   39.7118   42.8305   -5.7210 C   0  0  2  0  0  0  0  0  0  0  0  0
   35.6964   40.0715   -5.1760 C   0  0  2  0  0  0  0  0  0  0  0  0
   37.1304   40.2140   -5.2679 O   0  0  0  0  0  0  0  0  0  0  0  0
   36.3331   42.9668   -1.2280 C   0  0  2  0  0  0  0  0  0  0  0  0
   36.5537   44.3604   -1.4636 O   0  0  0  0  0  0  0  0  0  0  0  0
   37.7929   45.9343   -6.5057 C   0  0  2  0  0  0  0  0  0  0  0  0
   37.4757   44.5554   -6.7802 O   0  0  0  0  0  0  0  0  0  0  0  0
   39.8235   41.4365   -6.3348 C   0  0  2  0  0  0  0  0  0  0  0  0
   38.5754   41.0888   -6.9562 O   0  0  0  0  0  0  0  0  0  0  0  0
   35.2389   38.7308   -5.7545 C   0  0  0  0  0  0  0  0  0  0  0  0
   36.3319   37.8103   -5.7221 O   0  0  0  0  0  0  0  0  0  0  0  0
   37.1131   42.1234   -2.2399 C   0  0  1  0  0  0  0  0  0  0  0  0
   36.6729   42.4780   -3.5627 O   0  0  0  0  0  0  0  0  0  0  0  0
   36.6459   46.5914   -5.7338 C   0  0  0  0  0  0  0  0  0  0  0  0
   35.6615   47.1502   -6.6717 O   0  0  0  0  0  0  0  0  0  0  0  0
   40.1856   40.3955   -5.2688 C   0  0  1  0  0  0  0  0  0  0  0  0
   40.3725   39.1162   -5.8782 O   0  0  0  0  0  0  0  0  0  0  0  0
   38.6225   42.3468   -2.1385 C   0  0  0  0  0  0  0  0  0  0  0  0
   39.1023   41.8309   -0.8488 N   0  0  0  0  0  0  0  0  0  0  0  0
  1  2  1  1  0  0  0
  1  7  1  0  0  0  0
  1 30  1  0  0  0  0
  3  4  1  1  0  0  0
  3  9  1  0  0  0  0
  3 39  1  0  0  0  0
  5 10  1  0  0  0  0
  5 26  1  0  0  0  0
  5 32  1  6  0  0  0
  6 12  1  0  0  0  0
  6 36  1  0  0  0  0
  6 19  1  6  0  0  0
  7  8  1  1  0  0  0
  7 14  1  0  0  0  0
  9 16  1  0  0  0  0
 10 11  1  1  0  0  0
 10 18  1  0  0  0  0
 12 13  1  6  0  0  0
 12 20  1  0  0  0  0
 14 15  1  6  0  0  0
 14 22  1  0  0  0  0
 16 17  1  1  0  0  0
 16 24  1  0  0  0  0
 18 19  1  1  0  0  0
 18 25  1  0  0  0  0
 20 21  1  6  0  0  0
 20 27  1  0  0  0  0
 22 23  1  1  0  0  0
 22 29  1  0  0  0  0
 24  2  1  6  0  0  0
 24 31  1  0  0  0  0
 25 26  1  0  0  0  0
 25 33  1  6  0  0  0
 27 28  1  6  0  0  0
 27 35  1  0  0  0  0
 29 30  1  0  0  0  0
 29 37  1  6  0  0  0
 31 32  1  1  0  0  0
 31 39  1  0  0  0  0
 33 34  1  0  0  0  0
 35 36  1  0  0  0  0
 35 41  1  6  0  0  0
 37 38  1  0  0  0  0
 39 40  1  6  0  0  0
 41 42  1  0  0  0  0
M  END
>  <CHROM.1>
-159.88272057,159.43918026,-143.06019551,-114.90514576,-164.36359919,140.68150744
31.52878107,-48.00977425,66.75613407,37.73084336,42.82629365,-5.26968562
-1.22451939,-0.64023852,2.54287819

>  <Name>
3c44_lig

>  <RI>
0

>  <Rbt.Current_Directory>
/home/itssahil/PROJECTS/Mol_Feturizer/New_Systems/rnas/3c44

>  <Rbt.Executable>
rbdock ($Id: //depot/dev/client3/rdock/2013.1/src/exe/rbdock.cxx#4 $)

>  <Rbt.Library>
libRbt.so (2013.1, Build901 2013/11/27)

>  <Rbt.Parameter_File>
/export/apps/rDock/src/rDock_2013.1_src/data/scripts/dock_solv.prm

>  <Rbt.Receptor>
prm/blind_docking_100.prm

>  <SCORE>
22.18

>  <SCORE.INTER>
5.5385

>  <SCORE.INTER.CONST>
1

>  <SCORE.INTER.POLAR>
-0.86145

>  <SCORE.INTER.ROT>
9

>  <SCORE.INTER.SOLV>
33.3737

>  <SCORE.INTER.VDW>
-14.1607

>  <SCORE.INTER.norm>
0.131869

>  <SCORE.INTRA>
15.9664

>  <SCORE.INTRA.DIHEDRAL>
8.90258

>  <SCORE.INTRA.DIHEDRAL.0>
14.8538

>  <SCORE.INTRA.POLAR>
0

>  <SCORE.INTRA.POLAR.0>
0

>  <SCORE.INTRA.REPUL>
0.223385

>  <SCORE.INTRA.REPUL.0>
0

>  <SCORE.INTRA.SOLV>
-0.00476669

>  <SCORE.INTRA.SOLV.lig_0>
-100.951

>  <SCORE.INTRA.VDW>
10.4006

>  <SCORE.INTRA.VDW.0>
-5.71388

>  <SCORE.INTRA.norm>
0.380153

>  <SCORE.RESTR>
0.675086

>  <SCORE.RESTR.CAVITY>
0.675086

>  <SCORE.RESTR.norm>
0.0160735

>  <SCORE.SYSTEM>
0

>  <SCORE.SYSTEM.CONST>
0

>  <SCORE.SYSTEM.DIHEDRAL>
0

>  <SCORE.SYSTEM.SOLV>
0

>  <SCORE.SYSTEM.norm>
0

>  <SCORE.heavy>
42

>  <SCORE.norm>
0.528096

>  <RMSD>
12.355

$$$$
3c44_lig
 OpenBabel11021811463D
libRbt.so/2013.1/901 2013/11/27
 42 45  0  0  0  0  0  0  0  0999 V2000
   37.3888   39.0019   -3.2714 C   0  0  2  0  0  0  0  0  0  0  0  0
   37.2246   40.2587   -2.5969 O   0  0  0  0  0  0  0  0  0  0  0  0
   36.9926   38.0817    0.9239 C   0  0  2  0  0  0  0  0  0  0  0  0
   36.9269   37.4986    2.2728 N   0  0  0  0  0  0  0  0  0  0  0  0
   35.0733   41.7315   -1.1089 C   0  0  1  0  0  0  0  0  0  0  0  0
   36.0528   44.2675   -3.5242 C   0  0  1  0  0  0  0  0  0  0  0  0
   38.7074   39.0208   -4.0518 C   0  0  2  0  0  0  0  0  0  0  0  0
   39.8337   39.3582   -3.1693 N   0  0  0  0  0  0  0  0  0  0  0  0
   38.2587   38.9279    0.7628 C   0  0  0  0  0  0  0  0  0  0  0  0
   34.2562   42.4275   -2.1983 C   0  0  2  0  0  0  0  0  0  0  0  0
   34.8573   42.2066   -3.4757 O   0  0  0  0  0  0  0  0  0  0  0  0
   36.9029   43.0419   -3.8749 C   0  0  2  0  0  0  0  0  0  0  0  0
   38.1222   43.0763   -3.0557 N   0  0  0  0  0  0  0  0  0  0  0  0
   38.6575   40.0263   -5.2049 C   0  0  1  0  0  0  0  0  0  0  0  0
   39.8426   39.8953   -5.9959 O   0  0  0  0  0  0  0  0  0  0  0  0
   38.3402   39.3715   -0.7016 C   0  0  2  0  0  0  0  0  0  0  0  0
   39.5136   40.2395   -0.8824 N   0  0  0  0  0  0  0  0  0  0  0  0
   34.4782   43.8839   -1.7951 C   0  0  2  0  0  0  0  0  0  0  0  0
   35.8174   44.3021   -2.1056 O   0  0  0  0  0  0  0  0  0  0  0  0
   37.3007   43.0496   -5.3567 C   0  0  1  0  0  0  0  0  0  0  0  0
   36.1622   42.7855   -6.1807 O   0  0  0  0  0  0  0  0  0  0  0  0
   37.4291   39.7566   -6.0760 C   0  0  2  0  0  0  0  0  0  0  0  0
   37.3258   40.7638   -7.0858 O   0  0  0  0  0  0  0  0  0  0  0  0
   37.0897   40.1255   -1.1711 C   0  0  2  0  0  0  0  0  0  0  0  0
   34.3140   43.7819   -0.2868 C   0  0  2  0  0  0  0  0  0  0  0  0
   34.7323   42.4520    0.0899 O   0  0  0  0  0  0  0  0  0  0  0  0
   37.8959   44.4000   -5.7590 C   0  0  2  0  0  0  0  0  0  0  0  0
   39.1534   44.5662   -5.0978 O   0  0  0  0  0  0  0  0  0  0  0  0
   36.1716   39.7690   -5.2055 C   0  0  2  0  0  0  0  0  0  0  0  0
   36.2794   38.7806   -4.1621 O   0  0  0  0  0  0  0  0  0  0  0  0
   35.7729   39.4358   -0.8205 C   0  0  2  0  0  0  0  0  0  0  0  0
   34.6848   40.3484   -1.0396 O   0  0  0  0  0  0  0  0  0  0  0  0
   32.8492   44.0232    0.0841 C   0  0  0  0  0  0  0  0  0  0  0  0
   32.0524   42.9596   -0.4420 O   0  0  0  0  0  0  0  0  0  0  0  0
   36.9263   45.5126   -5.3515 C   0  0  1  0  0  0  0  0  0  0  0  0
   36.7469   45.4595   -3.9252 O   0  0  0  0  0  0  0  0  0  0  0  0
   34.9783   39.4479   -6.1092 C   0  0  0  0  0  0  0  0  0  0  0  0
   35.4472   38.8770   -7.3801 O   0  0  0  0  0  0  0  0  0  0  0  0
   35.7734   38.9621    0.6378 C   0  0  1  0  0  0  0  0  0  0  0  0
   34.5708   38.2424    0.9186 O   0  0  0  0  0  0  0  0  0  0  0  0
   37.4405   46.8994   -5.7396 C   0  0  0  0  0  0  0  0  0  0  0  0
   38.4064   47.3570   -4.7310 N   0  0  0  0  0  0  0  0  0  0  0  0
  1  2  1  6  0  0  0
  1  7  1  0  0  0  0
  1 30  1  0  0  0  0
  3  4  1  1  0  0  0
  3  9  1  0  0  0  0
  3 39  1  0  0  0  0
  5 10  1  0  0  0  0
  5 26  1  0  0  0  0
  5 32  1  1  0  0  0
  6 12  1  0  0  0  0
  6 36  1  0  0  0  0
  6 19  1  1  0  0  0
  7  8  1  1  0  0  0
  7 14  1  0  0  0  0
  9 16  1  0  0  0  0
 10 11  1  6  0  0  0
 10 18  1  0  0  0  0
 12 13  1  1  0  0  0
 12 20  1  0  0  0  0
 14 15  1  6  0  0  0
 14 22  1  0  0  0  0
 16 17  1  1  0  0  0
 16 24  1  0  0  0  0
 18 19  1  1  0  0  0
 18 25  1  0  0  0  0
 20 21  1  6  0  0  0
 20 27  1  0  0  0  0
 22 23  1  6  0  0  0
 22 29  1  0  0  0  0
 24  2  1  6  0  0  0
 24 31  1  0  0  0  0
 25 26  1  0  0  0  0
 25 33  1  6  0  0  0
 27 28  1  1  0  0  0
 27 35  1  0  0  0  0
 29 30  1  0  0  0  0
 29 37  1  6  0  0  0
 31 32  1  1  0  0  0
 31 39  1  0  0  0  0
 33 34  1  0  0  0  0
 35 36  1  0  0  0  0
 35 41  1  1  0  0  0
 37 38  1  0  0  0  0
 39 40  1  6  0  0  0
 41 42  1  0  0  0  0
M  END
>  <CHROM.1>
-121.80197751,140.81375367,-104.04067752,63.65276076,56.52740161,65.88972898
15.74179080,-18.42600659,-81.31636995,36.56412235,41.54001198,-2.96157494
-1.91591437,1.01902036,-0.56855158

>  <Name>
3c44_lig

>  <RI>
224

>  <Rbt.Current_Directory>
/home/itssahil/PROJECTS/Mol_Feturizer/New_Systems/rnas/3c44

>  <Rbt.Executable>
rbdock ($Id: //depot/dev/client3/rdock/2013.1/src/exe/rbdock.cxx#4 $)

>  <Rbt.Library>
libRbt.so (2013.1, Build901 2013/11/27)

>  <Rbt.Parameter_File>
/export/apps/rDock/src/rDock_2013.1_src/data/scripts/dock_solv.prm

>  <Rbt.Receptor>
prm/blind_docking_60.prm

>  <SCORE>
63.6811

>  <SCORE.INTER>
21.1306

>  <SCORE.INTER.CONST>
1

>  <SCORE.INTER.POLAR>
-0.211777

>  <SCORE.INTER.ROT>
9

>  <SCORE.INTER.SOLV>
22.6187

>  <SCORE.INTER.VDW>
-2.3466

>  <SCORE.INTER.norm>
0.503109

>  <SCORE.INTRA>
32.8711

>  <SCORE.INTRA.DIHEDRAL>
15.7458

>  <SCORE.INTRA.DIHEDRAL.0>
14.8538

>  <SCORE.INTRA.POLAR>
0

>  <SCORE.INTRA.POLAR.0>
0

>  <SCORE.INTRA.REPUL>
0

>  <SCORE.INTRA.REPUL.0>
0

>  <SCORE.INTRA.SOLV>
8.531

>  <SCORE.INTRA.SOLV.lig_0>
-100.951

>  <SCORE.INTRA.VDW>
20.7327

>  <SCORE.INTRA.VDW.0>
-5.71388

>  <SCORE.INTRA.norm>
0.782645

>  <SCORE.RESTR>
9.67946

>  <SCORE.RESTR.CAVITY>
9.67946

>  <SCORE.RESTR.norm>
0.230463

>  <SCORE.SYSTEM>
0

>  <SCORE.SYSTEM.CONST>
0

>  <SCORE.SYSTEM.DIHEDRAL>
0

>  <SCORE.SYSTEM.SOLV>
0

>  <SCORE.SYSTEM.norm>
0

>  <SCORE.heavy>
42

>  <SCORE.norm>
1.51622

>  <RMSD>
12.375

$$$$
3c44_lig
 OpenBabel11021811463D
libRbt.so/2013.1/901 2013/11/27
 42 45  0  0  0  0  0  0  0  0999 V2000
   38.6647   43.1509   -6.6115 C   0  0  2  0  0  0  0  0  0  0  0  0
   39.6710   42.1308   -6.7040 O   0  0  0  0  0  0  0  0  0  0  0  0
   41.8964   39.6855   -4.2025 C   0  0  2  0  0  0  0  0  0  0  0  0
   42.5700   38.9023   -3.1552 N   0  0  0  0  0  0  0  0  0  0  0  0
   37.7067   39.7931   -4.2826 C   0  0  1  0  0  0  0  0  0  0  0  0
   35.5318   41.9662   -2.4594 C   0  0  1  0  0  0  0  0  0  0  0  0
   37.4166   42.6938   -7.3737 C   0  0  2  0  0  0  0  0  0  0  0  0
   36.9600   41.3819   -6.8926 N   0  0  0  0  0  0  0  0  0  0  0  0
   41.9834   41.1834   -3.8962 C   0  0  0  0  0  0  0  0  0  0  0  0
   36.2249   40.1018   -4.5014 C   0  0  2  0  0  0  0  0  0  0  0  0
   36.0397   41.5078   -4.6764 O   0  0  0  0  0  0  0  0  0  0  0  0
   36.6604   42.9977   -2.3598 C   0  0  2  0  0  0  0  0  0  0  0  0
   37.2622   42.8958   -1.0232 N   0  0  0  0  0  0  0  0  0  0  0  0
   37.6832   42.6090   -8.8787 C   0  0  1  0  0  0  0  0  0  0  0  0
   36.4553   42.3347   -9.5601 O   0  0  0  0  0  0  0  0  0  0  0  0
   41.4040   41.9394   -5.0965 C   0  0  2  0  0  0  0  0  0  0  0  0
   41.4140   43.3826   -4.8134 N   0  0  0  0  0  0  0  0  0  0  0  0
   35.6741   39.6990   -3.1349 C   0  0  2  0  0  0  0  0  0  0  0  0
   36.0402   40.6610   -2.1321 O   0  0  0  0  0  0  0  0  0  0  0  0
   36.1270   44.4229   -2.5560 C   0  0  1  0  0  0  0  0  0  0  0  0
   35.7437   44.6294   -3.9181 O   0  0  0  0  0  0  0  0  0  0  0  0
   38.2605   43.9343   -9.3791 C   0  0  2  0  0  0  0  0  0  0  0  0
   38.6105   43.8149  -10.7605 O   0  0  0  0  0  0  0  0  0  0  0  0
   39.9716   41.5124   -5.4406 C   0  0  2  0  0  0  0  0  0  0  0  0
   36.4358   38.4042   -2.8998 C   0  0  2  0  0  0  0  0  0  0  0  0
   37.6965   38.5295   -3.5929 O   0  0  0  0  0  0  0  0  0  0  0  0
   34.9156   44.6845   -1.6595 C   0  0  2  0  0  0  0  0  0  0  0  0
   35.3446   44.6975   -0.2950 O   0  0  0  0  0  0  0  0  0  0  0  0
   39.5030   44.2925   -8.5622 C   0  0  2  0  0  0  0  0  0  0  0  0
   39.1693   44.3815   -7.1629 O   0  0  0  0  0  0  0  0  0  0  0  0
   39.7705   40.0007   -5.5237 C   0  0  2  0  0  0  0  0  0  0  0  0
   38.3640   39.7090   -5.5592 O   0  0  0  0  0  0  0  0  0  0  0  0
   35.6229   37.2282   -3.4453 C   0  0  0  0  0  0  0  0  0  0  0  0
   34.2834   37.3185   -2.9551 O   0  0  0  0  0  0  0  0  0  0  0  0
   33.8815   43.5781   -1.8845 C   0  0  1  0  0  0  0  0  0  0  0  0
   34.4833   42.3171   -1.5424 O   0  0  0  0  0  0  0  0  0  0  0  0
   40.0154   45.6445   -9.0650 C   0  0  0  0  0  0  0  0  0  0  0  0
   40.3996   45.5436  -10.4804 O   0  0  0  0  0  0  0  0  0  0  0  0
   40.4217   39.2946   -4.3286 C   0  0  1  0  0  0  0  0  0  0  0  0
   40.2995   37.8777   -4.4718 O   0  0  0  0  0  0  0  0  0  0  0  0
   32.6249   43.7791   -1.0365 C   0  0  0  0  0  0  0  0  0  0  0  0
   32.9922   43.7539    0.3862 N   0  0  0  0  0  0  0  0  0  0  0  0
  1  2  1  6  0  0  0
  1  7  1  0  0  0  0
  1 30  1  0  0  0  0
  3  4  1  1  0  0  0
  3  9  1  0  0  0  0
  3 39  1  0  0  0  0
  5 10  1  0  0  0  0
  5 26  1  0  0  0  0
  5 32  1  6  0  0  0
  6 12  1  0  0  0  0
  6 36  1  0  0  0  0
  6 19  1  1  0  0  0
  7  8  1  1  0  0  0
  7 14  1  0  0  0  0
  9 16  1  0  0  0  0
 10 11  1  1  0  0  0
 10 18  1  0  0  0  0
 12 13  1  1  0  0  0
 12 20  1  0  0  0  0
 14 15  1  6  0  0  0
 14 22  1  0  0  0  0
 16 17  1  1  0  0  0
 16 24  1  0  0  0  0
 18 19  1  1  0  0  0
 18 25  1  0  0  0  0
 20 21  1  6  0  0  0
 20 27  1  0  0  0  0
 22 23  1  6  0  0  0
 22 29  1  0  0  0  0
 24  2  1  6  0  0  0
 24 31  1  0  0  0  0
 25 26  1  0  0  0  0
 25 33  1  6  0  0  0
 27 28  1  1  0  0  0
 27 35  1  0  0  0  0
 29 30  1  0  0  0  0
 29 37  1  6  0  0  0
 31 32  1  1  0  0  0
 31 39  1  0  0  0  0
 33 34  1  0  0  0  0
 35 36  1  0  0  0  0
 35 41  1  1  0  0  0
 37 38  1  0  0  0  0
 39 40  1  6  0  0  0
 41 42  1  0  0  0  0
M  END
>  <CHROM.1>
-113.75429026,154.36007815,-129.83610175,59.48314227,-112.23946898,-49.44884839
-61.86434050,-77.71090265,-61.03241811,37.65134244,41.86476444,-4.73505075
0.68939232,0.71890577,-0.69388566

>  <Name>
3c44_lig

>  <RI>
0

>  <Rbt.Current_Directory>
/home/itssahil/PROJECTS/Mol_Feturizer/New_Systems/rnas/3c44

>  <Rbt.Executable>
rbdock ($Id: //depot/dev/client3/rdock/2013.1/src/exe/rbdock.cxx#4 $)

>  <Rbt.Library>
libRbt.so (2013.1, Build901 2013/11/27)

>  <Rbt.Parameter_File>
/export/apps/rDock/src/rDock_2013.1_src/data/scripts/dock_solv.prm

>  <Rbt.Receptor>
prm/blind_docking_100.prm

>  <SCORE>
64.1696

>  <SCORE.INTER>
40.4495

>  <SCORE.INTER.CONST>
1

>  <SCORE.INTER.POLAR>
-0.176222

>  <SCORE.INTER.ROT>
9

>  <SCORE.INTER.SOLV>
27.4883

>  <SCORE.INTER.VDW>
8.79096

>  <SCORE.INTER.norm>
0.963083

>  <SCORE.INTRA>
18.3125

>  <SCORE.INTRA.DIHEDRAL>
10.7306

>  <SCORE.INTRA.DIHEDRAL.0>
14.8538

>  <SCORE.INTRA.POLAR>
0

>  <SCORE.INTRA.POLAR.0>
0

>  <SCORE.INTRA.REPUL>
0.019354

>  <SCORE.INTRA.REPUL.0>
0

>  <SCORE.INTRA.SOLV>
3.70544

>  <SCORE.INTRA.SOLV.lig_0>
-100.951

>  <SCORE.INTRA.VDW>
10.9977

>  <SCORE.INTRA.VDW.0>
-5.71388

>  <SCORE.INTRA.norm>
0.436012

>  <SCORE.RESTR>
5.40759

>  <SCORE.RESTR.CAVITY>
5.40759

>  <SCORE.RESTR.norm>
0.128752

>  <SCORE.SYSTEM>
0

>  <SCORE.SYSTEM.CONST>
0

>  <SCORE.SYSTEM.DIHEDRAL>
0

>  <SCORE.SYSTEM.SOLV>
0

>  <SCORE.SYSTEM.norm>
0

>  <SCORE.heavy>
42

>  <SCORE.norm>
1.52785

>  <RMSD>
12.398

$$$$
3c44_lig
 OpenBabel11021811463D
libRbt.so/2013.1/901 2013/11/27
 42 45  0  0  0  0  0  0  0  0999 V2000
   37.5933   39.1665   -6.5783 C   0  0  2  0  0  0  0  0  0  0  0  0
   37.9666   40.4051   -5.9552 O   0  0  0  0  0  0  0  0  0  0  0  0
   39.1764   44.1039   -7.3851 C   0  0  2  0  0  0  0  0  0  0  0  0
   39.4713   45.3795   -8.0558 N   0  0  0  0  0  0  0  0  0  0  0  0
   35.8310   42.1476   -4.4145 C   0  0  1  0  0  0  0  0  0  0  0  0
   35.9288   40.6957   -0.4562 C   0  0  1  0  0  0  0  0  0  0  0  0
   36.0881   39.1836   -6.8648 C   0  0  2  0  0  0  0  0  0  0  0  0
   35.7188   40.3663   -7.6558 N   0  0  0  0  0  0  0  0  0  0  0  0
   39.4210   42.9265   -8.3333 C   0  0  0  0  0  0  0  0  0  0  0  0
   36.8555   42.7066   -3.4260 C   0  0  2  0  0  0  0  0  0  0  0  0
   38.0673   41.9531   -3.5004 O   0  0  0  0  0  0  0  0  0  0  0  0
   36.1276   39.2028   -0.1743 C   0  0  2  0  0  0  0  0  0  0  0  0
   35.3022   38.4404   -1.1212 N   0  0  0  0  0  0  0  0  0  0  0  0
   35.2745   39.1756   -5.5682 C   0  0  1  0  0  0  0  0  0  0  0  0
   33.8863   39.0319   -5.8839 O   0  0  0  0  0  0  0  0  0  0  0  0
   39.2468   41.6348   -7.5277 C   0  0  2  0  0  0  0  0  0  0  0  0
   39.4140   40.4783   -8.4208 N   0  0  0  0  0  0  0  0  0  0  0  0
   36.1508   42.3770   -2.1116 C   0  0  2  0  0  0  0  0  0  0  0  0
   36.2058   40.9666   -1.8415 O   0  0  0  0  0  0  0  0  0  0  0  0
   35.6986   38.8472    1.2552 C   0  0  1  0  0  0  0  0  0  0  0  0
   36.6234   39.3873    2.2029 O   0  0  0  0  0  0  0  0  0  0  0  0
   35.7205   38.0106   -4.6827 C   0  0  2  0  0  0  0  0  0  0  0  0
   35.0367   38.0715   -3.4282 O   0  0  0  0  0  0  0  0  0  0  0  0
   37.8793   41.5356   -6.8402 C   0  0  2  0  0  0  0  0  0  0  0  0
   34.7237   42.7737   -2.4553 C   0  0  2  0  0  0  0  0  0  0  0  0
   34.5659   42.5753   -3.8769 O   0  0  0  0  0  0  0  0  0  0  0  0
   34.3038   39.3948    1.5627 C   0  0  2  0  0  0  0  0  0  0  0  0
   33.3457   38.6924    0.7660 O   0  0  0  0  0  0  0  0  0  0  0  0
   37.2301   38.0924   -4.4509 C   0  0  2  0  0  0  0  0  0  0  0  0
   37.9287   38.0669   -5.7113 O   0  0  0  0  0  0  0  0  0  0  0  0
   37.4731   42.7892   -6.0681 C   0  0  2  0  0  0  0  0  0  0  0  0
   36.0823   42.7022   -5.7175 O   0  0  0  0  0  0  0  0  0  0  0  0
   34.4963   44.2386   -2.0760 C   0  0  0  0  0  0  0  0  0  0  0  0
   34.8699   44.4311   -0.7098 O   0  0  0  0  0  0  0  0  0  0  0  0
   34.2740   40.8910    1.2396 C   0  0  1  0  0  0  0  0  0  0  0  0
   34.5719   41.0604   -0.1575 O   0  0  0  0  0  0  0  0  0  0  0  0
   37.6358   36.8841   -3.6032 C   0  0  0  0  0  0  0  0  0  0  0  0
   38.9138   36.3380   -4.0821 O   0  0  0  0  0  0  0  0  0  0  0  0
   37.7251   44.0517   -6.9010 C   0  0  1  0  0  0  0  0  0  0  0  0
   37.4227   45.2156   -6.1284 O   0  0  0  0  0  0  0  0  0  0  0  0
   32.9138   41.5213    1.5411 C   0  0  0  0  0  0  0  0  0  0  0  0
   32.8485   42.8513    0.9194 N   0  0  0  0  0  0  0  0  0  0  0  0
  1  2  1  1  0  0  0
  1  7  1  0  0  0  0
  1 30  1  0  0  0  0
  3  4  1  6  0  0  0
  3  9  1  0  0  0  0
  3 39  1  0  0  0  0
  5 10  1  0  0  0  0
  5 26  1  0  0  0  0
  5 32  1  6  0  0  0
  6 12  1  0  0  0  0
  6 36  1  0  0  0  0
  6 19  1  6  0  0  0
  7  8  1  1  0  0  0
  7 14  1  0  0  0  0
  9 16  1  0  0  0  0
 10 11  1  1  0  0  0
 10 18  1  0  0  0  0
 12 13  1  6  0  0  0
 12 20  1  0  0  0  0
 14 15  1  6  0  0  0
 14 22  1  0  0  0  0
 16 17  1  6  0  0  0
 16 24  1  0  0  0  0
 18 19  1  6  0  0  0
 18 25  1  0  0  0  0
 20 21  1  1  0  0  0
 20 27  1  0  0  0  0
 22 23  1  1  0  0  0
 22 29  1  0  0  0  0
 24  2  1  1  0  0  0
 24 31  1  0  0  0  0
 25 26  1  0  0  0  0
 25 33  1  6  0  0  0
 27 28  1  6  0  0  0
 27 35  1  0  0  0  0
 29 30  1  0  0  0  0
 29 37  1  1  0  0  0
 31 32  1  6  0  0  0
 31 39  1  0  0  0  0
 33 34  1  0  0  0  0
 35 36  1  0  0  0  0
 35 41  1  6  0  0  0
 37 38  1  0  0  0  0
 39 40  1  1  0  0  0
 41 42  1  0  0  0  0
M  END
>  <CHROM.1>
-68.89067075,41.10290725,-174.58508203,162.20338433,-89.04763282,-53.08452987
139.91449383,93.40502964,-166.53895902,36.31801659,40.91084700,-3.60759333
-0.33736835,-1.12011302,2.98377490

>  <Name>
3c44_lig

>  <RI>
224

>  <Rbt.Current_Directory>
/home/itssahil/PROJECTS/Mol_Feturizer/New_Systems/rnas/3c44

>  <Rbt.Executable>
rbdock ($Id: //depot/dev/client3/rdock/2013.1/src/exe/rbdock.cxx#4 $)

>  <Rbt.Library>
libRbt.so (2013.1, Build901 2013/11/27)

>  <Rbt.Parameter_File>
/export/apps/rDock/src/rDock_2013.1_src/data/scripts/dock_solv.prm

>  <Rbt.Receptor>
prm/blind_docking_60.prm

>  <SCORE>
-1.24141

>  <SCORE.INTER>
-17.5505

>  <SCORE.INTER.CONST>
1

>  <SCORE.INTER.POLAR>
-2.06874

>  <SCORE.INTER.ROT>
9

>  <SCORE.INTER.SOLV>
24.4346

>  <SCORE.INTER.VDW>
-22.5494

>  <SCORE.INTER.norm>
-0.41787

>  <SCORE.INTRA>
10.4998

>  <SCORE.INTRA.DIHEDRAL>
1.43541

>  <SCORE.INTRA.DIHEDRAL.0>
14.8538

>  <SCORE.INTRA.POLAR>
0

>  <SCORE.INTRA.POLAR.0>
0

>  <SCORE.INTRA.REPUL>
0.569848

>  <SCORE.INTRA.REPUL.0>
0

>  <SCORE.INTRA.SOLV>
5.94622

>  <SCORE.INTRA.SOLV.lig_0>
-100.951

>  <SCORE.INTRA.VDW>
3.95971

>  <SCORE.INTRA.VDW.0>
-5.71388

>  <SCORE.INTRA.norm>
0.249994

>  <SCORE.RESTR>
5.80936

>  <SCORE.RESTR.CAVITY>
5.80936

>  <SCORE.RESTR.norm>
0.138318

>  <SCORE.SYSTEM>
0

>  <SCORE.SYSTEM.CONST>
0

>  <SCORE.SYSTEM.DIHEDRAL>
0

>  <SCORE.SYSTEM.SOLV>
0

>  <SCORE.SYSTEM.norm>
0

>  <SCORE.heavy>
42

>  <SCORE.norm>
-0.0295575

>  <RMSD>
12.412

$$$$
3c44_lig
 OpenBabel11021811463D
libRbt.so/2013.1/901 2013/11/27
 42 45  0  0  0  0  0  0  0  0999 V2000
   36.2463   41.0687   -0.9857 C   0  0  2  0  0  0  0  0  0  0  0  0
   35.2143   41.7371   -1.7274 O   0  0  0  0  0  0  0  0  0  0  0  0
   33.1953   45.3581   -1.7715 C   0  0  2  0  0  0  0  0  0  0  0  0
   32.5861   46.6867   -1.6064 N   0  0  0  0  0  0  0  0  0  0  0  0
   37.2801   43.3666   -3.5355 C   0  0  1  0  0  0  0  0  0  0  0  0
   38.4498   41.0589   -6.1536 C   0  0  1  0  0  0  0  0  0  0  0  0
   36.5827   39.7438   -1.6780 C   0  0  2  0  0  0  0  0  0  0  0  0
   36.9309   39.9637   -3.0892 N   0  0  0  0  0  0  0  0  0  0  0  0
   32.9757   44.5043   -0.5193 C   0  0  0  0  0  0  0  0  0  0  0  0
   38.4100   44.1303   -4.2277 C   0  0  2  0  0  0  0  0  0  0  0  0
   37.8716   45.0004   -5.2251 O   0  0  0  0  0  0  0  0  0  0  0  0
   39.7853   40.6901   -6.8080 C   0  0  2  0  0  0  0  0  0  0  0  0
   39.8919   41.4170   -8.0805 N   0  0  0  0  0  0  0  0  0  0  0  0
   35.4113   38.7616   -1.5996 C   0  0  1  0  0  0  0  0  0  0  0  0
   35.8251   37.4926   -2.1151 O   0  0  0  0  0  0  0  0  0  0  0  0
   33.4944   43.0940   -0.8194 C   0  0  2  0  0  0  0  0  0  0  0  0
   33.3564   42.2588    0.3833 N   0  0  0  0  0  0  0  0  0  0  0  0
   39.1196   42.9680   -4.9195 C   0  0  2  0  0  0  0  0  0  0  0  0
   38.3492   42.4888   -6.0339 O   0  0  0  0  0  0  0  0  0  0  0  0
   39.8669   39.1840   -7.0891 C   0  0  1  0  0  0  0  0  0  0  0  0
   39.9987   38.4543   -5.8663 O   0  0  0  0  0  0  0  0  0  0  0  0
   34.9645   38.6014   -0.1453 C   0  0  2  0  0  0  0  0  0  0  0  0
   33.8022   37.7703   -0.0885 O   0  0  0  0  0  0  0  0  0  0  0  0
   34.9609   43.0765   -1.2685 C   0  0  2  0  0  0  0  0  0  0  0  0
   39.1034   41.9318   -3.8068 C   0  0  2  0  0  0  0  0  0  0  0  0
   37.9299   42.1954   -3.0076 O   0  0  0  0  0  0  0  0  0  0  0  0
   38.6174   38.6931   -7.8221 C   0  0  2  0  0  0  0  0  0  0  0  0
   38.6024   39.2552   -9.1373 O   0  0  0  0  0  0  0  0  0  0  0  0
   34.6449   39.9752    0.4463 C   0  0  2  0  0  0  0  0  0  0  0  0
   35.7997   40.8334    0.3627 O   0  0  0  0  0  0  0  0  0  0  0  0
   35.2939   44.0889   -2.3625 C   0  0  2  0  0  0  0  0  0  0  0  0
   36.7208   44.1908   -2.4980 O   0  0  0  0  0  0  0  0  0  0  0  0
   40.3784   42.0613   -2.9708 C   0  0  0  0  0  0  0  0  0  0  0  0
   41.4838   41.5560   -3.7229 O   0  0  0  0  0  0  0  0  0  0  0  0
   37.3767   39.1311   -7.0392 C   0  0  1  0  0  0  0  0  0  0  0  0
   37.3703   40.5676   -6.9640 O   0  0  0  0  0  0  0  0  0  0  0  0
   34.2505   39.7695    1.9111 C   0  0  0  0  0  0  0  0  0  0  0  0
   32.8039   39.5301    2.0153 O   0  0  0  0  0  0  0  0  0  0  0  0
   34.6993   45.4640   -2.0364 C   0  0  1  0  0  0  0  0  0  0  0  0
   34.9459   46.3712   -3.1130 O   0  0  0  0  0  0  0  0  0  0  0  0
   36.0800   38.6589   -7.6980 C   0  0  0  0  0  0  0  0  0  0  0  0
   34.9353   39.1357   -6.9094 N   0  0  0  0  0  0  0  0  0  0  0  0
  1  2  1  6  0  0  0
  1  7  1  0  0  0  0
  1 30  1  0  0  0  0
  3  4  1  1  0  0  0
  3  9  1  0  0  0  0
  3 39  1  0  0  0  0
  5 10  1  0  0  0  0
  5 26  1  0  0  0  0
  5 32  1  1  0  0  0
  6 12  1  0  0  0  0
  6 36  1  0  0  0  0
  6 19  1  6  0  0  0
  7  8  1  6  0  0  0
  7 14  1  0  0  0  0
  9 16  1  0  0  0  0
 10 11  1  6  0  0  0
 10 18  1  0  0  0  0
 12 13  1  6  0  0  0
 12 20  1  0  0  0  0
 14 15  1  1  0  0  0
 14 22  1  0  0  0  0
 16 17  1  1  0  0  0
 16 24  1  0  0  0  0
 18 19  1  6  0  0  0
 18 25  1  0  0  0  0
 20 21  1  1  0  0  0
 20 27  1  0  0  0  0
 22 23  1  6  0  0  0
 22 29  1  0  0  0  0
 24  2  1  6  0  0  0
 24 31  1  0  0  0  0
 25 26  1  0  0  0  0
 25 33  1  1  0  0  0
 27 28  1  6  0  0  0
 27 35  1  0  0  0  0
 29 30  1  0  0  0  0
 29 37  1  1  0  0  0
 31 32  1  1  0  0  0
 31 39  1  0  0  0  0
 33 34  1  0  0  0  0
 35 36  1  0  0  0  0
 35 41  1  6  0  0  0
 37 38  1  0  0  0  0
 39 40  1  6  0  0  0
 41 42  1  0  0  0  0
M  END
>  <CHROM.1>
-171.61648294,141.82141682,-78.44312748,-143.24843168,-119.36677688,-72.94281619
-88.89506232,95.66028589,-178.92246272,36.57345346,41.46823106,-3.31835799
2.99755263,0.94157163,-0.09697823

>  <Name>
3c44_lig

>  <RI>
224

>  <Rbt.Current_Directory>
/home/itssahil/PROJECTS/Mol_Feturizer/New_Systems/rnas/3c44

>  <Rbt.Executable>
rbdock ($Id: //depot/dev/client3/rdock/2013.1/src/exe/rbdock.cxx#4 $)

>  <Rbt.Library>
libRbt.so (2013.1, Build901 2013/11/27)

>  <Rbt.Parameter_File>
/export/apps/rDock/src/rDock_2013.1_src/data/scripts/dock_solv.prm

>  <Rbt.Receptor>
prm/blind_docking_60.prm

>  <SCORE>
20.8282

>  <SCORE.INTER>
3.56077

>  <SCORE.INTER.CONST>
1

>  <SCORE.INTER.POLAR>
0

>  <SCORE.INTER.ROT>
9

>  <SCORE.INTER.SOLV>
21.8988

>  <SCORE.INTER.VDW>
-14.5257

>  <SCORE.INTER.norm>
0.0847803

>  <SCORE.INTRA>
12.4421

>  <SCORE.INTRA.DIHEDRAL>
11.7141

>  <SCORE.INTRA.DIHEDRAL.0>
14.8538

>  <SCORE.INTRA.POLAR>
0

>  <SCORE.INTRA.POLAR.0>
0

>  <SCORE.INTRA.REPUL>
0

>  <SCORE.INTRA.REPUL.0>
0

>  <SCORE.INTRA.SOLV>
3.51394

>  <SCORE.INTRA.SOLV.lig_0>
-100.951

>  <SCORE.INTRA.VDW>
4.82809

>  <SCORE.INTRA.VDW.0>
-5.71388

>  <SCORE.INTRA.norm>
0.29624

>  <SCORE.RESTR>
4.82534

>  <SCORE.RESTR.CAVITY>
4.82534

>  <SCORE.RESTR.norm>
0.114889

>  <SCORE.SYSTEM>
0

>  <SCORE.SYSTEM.CONST>
0

>  <SCORE.SYSTEM.DIHEDRAL>
0

>  <SCORE.SYSTEM.SOLV>
0

>  <SCORE.SYSTEM.norm>
0

>  <SCORE.heavy>
42

>  <SCORE.norm>
0.49591

>  <RMSD>
12.421

$$$$
3c44_lig
 OpenBabel11021811463D
libRbt.so/2013.1/901 2013/11/27
 42 45  0  0  0  0  0  0  0  0999 V2000
   39.5458   43.9715   -7.4239 C   0  0  2  0  0  0  0  0  0  0  0  0
   38.6678   43.0562   -8.0970 O   0  0  0  0  0  0  0  0  0  0  0  0
   39.1575   39.0653   -9.1079 C   0  0  2  0  0  0  0  0  0  0  0  0
   39.4074   37.6244   -9.2674 N   0  0  0  0  0  0  0  0  0  0  0  0
   37.1247   40.4817   -5.6998 C   0  0  1  0  0  0  0  0  0  0  0  0
   37.1639   40.0215   -1.4904 C   0  0  1  0  0  0  0  0  0  0  0  0
   39.4659   43.7234   -5.9139 C   0  0  2  0  0  0  0  0  0  0  0  0
   39.7431   42.3145   -5.5991 N   0  0  0  0  0  0  0  0  0  0  0  0
   40.4356   39.7901   -8.6763 C   0  0  0  0  0  0  0  0  0  0  0  0
   35.9559   40.6348   -4.7253 C   0  0  2  0  0  0  0  0  0  0  0  0
   35.9872   41.9313   -4.1253 O   0  0  0  0  0  0  0  0  0  0  0  0
   37.2351   38.5741   -0.9927 C   0  0  2  0  0  0  0  0  0  0  0  0
   36.3521   37.7533   -1.8328 N   0  0  0  0  0  0  0  0  0  0  0  0
   38.0887   44.0975   -5.3603 C   0  0  1  0  0  0  0  0  0  0  0  0
   38.1123   44.0006   -3.9330 O   0  0  0  0  0  0  0  0  0  0  0  0
   40.1434   41.2943   -8.6819 C   0  0  2  0  0  0  0  0  0  0  0  0
   41.3319   42.0225   -8.2126 N   0  0  0  0  0  0  0  0  0  0  0  0
   36.3569   39.5979   -3.6780 C   0  0  2  0  0  0  0  0  0  0  0  0
   37.4682   40.0646   -2.8956 O   0  0  0  0  0  0  0  0  0  0  0  0
   36.7721   38.4666    0.4661 C   0  0  1  0  0  0  0  0  0  0  0  0
   37.7353   39.0601    1.3406 O   0  0  0  0  0  0  0  0  0  0  0  0
   37.7360   45.5287   -5.7697 C   0  0  2  0  0  0  0  0  0  0  0  0
   36.4053   45.8357   -5.3454 O   0  0  0  0  0  0  0  0  0  0  0  0
   38.9481   41.6770   -7.8001 C   0  0  2  0  0  0  0  0  0  0  0  0
   36.8104   38.4579   -4.5763 C   0  0  2  0  0  0  0  0  0  0  0  0
   37.3120   39.0572   -5.7906 O   0  0  0  0  0  0  0  0  0  0  0  0
   35.4272   39.1666    0.6688 C   0  0  2  0  0  0  0  0  0  0  0  0
   34.4164   38.4378   -0.0335 O   0  0  0  0  0  0  0  0  0  0  0  0
   37.8365   45.6660   -7.2896 C   0  0  2  0  0  0  0  0  0  0  0  0
   39.1649   45.3252   -7.7329 O   0  0  0  0  0  0  0  0  0  0  0  0
   37.7046   40.8186   -8.0220 C   0  0  2  0  0  0  0  0  0  0  0  0
   36.7629   41.0631   -6.9646 O   0  0  0  0  0  0  0  0  0  0  0  0
   35.6247   37.5356   -4.8675 C   0  0  0  0  0  0  0  0  0  0  0  0
   34.9285   37.2699   -3.6477 O   0  0  0  0  0  0  0  0  0  0  0  0
   35.5249   40.5973    0.1327 C   0  0  1  0  0  0  0  0  0  0  0  0
   35.8414   40.5369   -1.2693 O   0  0  0  0  0  0  0  0  0  0  0  0
   37.5231   47.1214   -7.6461 C   0  0  0  0  0  0  0  0  0  0  0  0
   36.1048   47.4096   -7.3887 O   0  0  0  0  0  0  0  0  0  0  0  0
   38.0672   39.3294   -8.0663 C   0  0  1  0  0  0  0  0  0  0  0  0
   36.9052   38.5518   -8.3632 O   0  0  0  0  0  0  0  0  0  0  0  0
   34.2214   41.3752    0.3180 C   0  0  0  0  0  0  0  0  0  0  0  0
   33.8682   41.3944    1.7443 N   0  0  0  0  0  0  0  0  0  0  0  0
  1  2  1  6  0  0  0
  1  7  1  0  0  0  0
  1 30  1  0  0  0  0
  3  4  1  1  0  0  0
  3  9  1  0  0  0  0
  3 39  1  0  0  0  0
  5 10  1  0  0  0  0
  5 26  1  0  0  0  0
  5 32  1  6  0  0  0
  6 12  1  0  0  0  0
  6 36  1  0  0  0  0
  6 19  1  6  0  0  0
  7  8  1  6  0  0  0
  7 14  1  0  0  0  0
  9 16  1  0  0  0  0
 10 11  1  1  0  0  0
 10 18  1  0  0  0  0
 12 13  1  6  0  0  0
 12 20  1  0  0  0  0
 14 15  1  1  0  0  0
 14 22  1  0  0  0  0
 16 17  1  1  0  0  0
 16 24  1  0  0  0  0
 18 19  1  1  0  0  0
 18 25  1  0  0  0  0
 20 21  1  1  0  0  0
 20 27  1  0  0  0  0
 22 23  1  6  0  0  0
 22 29  1  0  0  0  0
 24  2  1  6  0  0  0
 24 31  1  0  0  0  0
 25 26  1  0  0  0  0
 25 33  1  6  0  0  0
 27 28  1  6  0  0  0
 27 35  1  0  0  0  0
 29 30  1  0  0  0  0
 29 37  1  1  0  0  0
 31 32  1  1  0  0  0
 31 39  1  0  0  0  0
 33 34  1  0  0  0  0
 35 36  1  0  0  0  0
 35 41  1  6  0  0  0
 37 38  1  0  0  0  0
 39 40  1  6  0  0  0
 41 42  1  0  0  0  0
M  END
>  <CHROM.1>
-56.61302599,-171.72028494,75.88983482,125.53362208,-79.85826970,-45.99226934
-68.78613555,-73.62296821,57.65365617,37.33339548,41.20237086,-4.78706118
0.51416882,1.17208639,-0.05218742

>  <Name>
3c44_lig

>  <RI>
0

>  <Rbt.Current_Directory>
/home/itssahil/PROJECTS/Mol_Feturizer/New_Systems/rnas/3c44

>  <Rbt.Executable>
rbdock ($Id: //depot/dev/client3/rdock/2013.1/src/exe/rbdock.cxx#4 $)

>  <Rbt.Library>
libRbt.so (2013.1, Build901 2013/11/27)

>  <Rbt.Parameter_File>
/export/apps/rDock/src/rDock_2013.1_src/data/scripts/dock_solv.prm

>  <Rbt.Receptor>
prm/blind_docking_100.prm

>  <SCORE>
35.331

>  <SCORE.INTER>
9.64737

>  <SCORE.INTER.CONST>
1

>  <SCORE.INTER.POLAR>
-0.475998

>  <SCORE.INTER.ROT>
9

>  <SCORE.INTER.SOLV>
25.5304

>  <SCORE.INTER.VDW>
-10.0919

>  <SCORE.INTER.norm>
0.229699

>  <SCORE.INTRA>
16.109

>  <SCORE.INTRA.DIHEDRAL>
-2.78434

>  <SCORE.INTRA.DIHEDRAL.0>
14.8538

>  <SCORE.INTRA.POLAR>
0

>  <SCORE.INTRA.POLAR.0>
0

>  <SCORE.INTRA.REPUL>
0.0636827

>  <SCORE.INTRA.REPUL.0>
0

>  <SCORE.INTRA.SOLV>
7.63366

>  <SCORE.INTRA.SOLV.lig_0>
-100.951

>  <SCORE.INTRA.VDW>
13.3659

>  <SCORE.INTRA.VDW.0>
-5.71388

>  <SCORE.INTRA.norm>
0.383548

>  <SCORE.RESTR>
9.57462

>  <SCORE.RESTR.CAVITY>
9.57462

>  <SCORE.RESTR.norm>
0.227967

>  <SCORE.SYSTEM>
0

>  <SCORE.SYSTEM.CONST>
0

>  <SCORE.SYSTEM.DIHEDRAL>
0

>  <SCORE.SYSTEM.SOLV>
0

>  <SCORE.SYSTEM.norm>
0

>  <SCORE.heavy>
42

>  <SCORE.norm>
0.841214

>  <RMSD>
12.445

$$$$
3c44_lig
 OpenBabel11021811463D
libRbt.so/2013.1/901 2013/11/27
 42 45  0  0  0  0  0  0  0  0999 V2000
   35.6306   45.1386   -2.3995 C   0  0  2  0  0  0  0  0  0  0  0  0
   34.4652   44.4740   -2.9113 O   0  0  0  0  0  0  0  0  0  0  0  0
   35.4905   41.2832   -0.4706 C   0  0  2  0  0  0  0  0  0  0  0  0
   35.6602   40.0726    0.3478 N   0  0  0  0  0  0  0  0  0  0  0  0
   36.3452   41.9388   -5.0071 C   0  0  1  0  0  0  0  0  0  0  0  0
   39.4923   42.2309   -7.1920 C   0  0  1  0  0  0  0  0  0  0  0  0
   35.3359   46.6365   -2.2686 C   0  0  2  0  0  0  0  0  0  0  0  0
   34.1328   46.8647   -1.4553 N   0  0  0  0  0  0  0  0  0  0  0  0
   34.2287   42.0441   -0.0533 C   0  0  0  0  0  0  0  0  0  0  0  0
   37.3412   40.8825   -4.5261 C   0  0  2  0  0  0  0  0  0  0  0  0
   38.0893   41.3858   -3.4176 O   0  0  0  0  0  0  0  0  0  0  0  0
   40.9883   42.5605   -7.2222 C   0  0  2  0  0  0  0  0  0  0  0  0
   41.2326   43.6812   -6.3038 N   0  0  0  0  0  0  0  0  0  0  0  0
   35.1428   47.2879   -3.6403 C   0  0  1  0  0  0  0  0  0  0  0  0
   35.0292   48.7049   -3.4772 O   0  0  0  0  0  0  0  0  0  0  0  0
   34.1999   43.3629   -0.8331 C   0  0  2  0  0  0  0  0  0  0  0  0
   32.9681   44.0958   -0.5040 N   0  0  0  0  0  0  0  0  0  0  0  0
   38.2556   40.8163   -5.7477 C   0  0  2  0  0  0  0  0  0  0  0  0
   39.0777   41.9917   -5.8356 O   0  0  0  0  0  0  0  0  0  0  0  0
   41.4374   42.9677   -8.6317 C   0  0  1  0  0  0  0  0  0  0  0  0
   41.4320   41.8347   -9.5041 O   0  0  0  0  0  0  0  0  0  0  0  0
   36.3399   46.9711   -4.5385 C   0  0  2  0  0  0  0  0  0  0  0  0
   36.1055   47.4875   -5.8513 O   0  0  0  0  0  0  0  0  0  0  0  0
   34.2665   43.1636   -2.3524 C   0  0  2  0  0  0  0  0  0  0  0  0
   37.2254   40.8315   -6.8661 C   0  0  2  0  0  0  0  0  0  0  0  0
   36.0857   41.5693   -6.3741 O   0  0  0  0  0  0  0  0  0  0  0  0
   40.5155   44.0406   -9.2137 C   0  0  2  0  0  0  0  0  0  0  0  0
   40.6873   45.2504   -8.4702 O   0  0  0  0  0  0  0  0  0  0  0  0
   36.5402   45.4565   -4.6092 C   0  0  2  0  0  0  0  0  0  0  0  0
   36.7430   44.9196   -3.2871 O   0  0  0  0  0  0  0  0  0  0  0  0
   35.3696   42.2128   -2.8127 C   0  0  2  0  0  0  0  0  0  0  0  0
   35.1609   41.8748   -4.1936 O   0  0  0  0  0  0  0  0  0  0  0  0
   36.8381   39.3946   -7.2221 C   0  0  0  0  0  0  0  0  0  0  0  0
   37.0160   38.5640   -6.0725 O   0  0  0  0  0  0  0  0  0  0  0  0
   39.0662   43.5562   -9.1193 C   0  0  1  0  0  0  0  0  0  0  0  0
   38.7500   43.3352   -7.7335 O   0  0  0  0  0  0  0  0  0  0  0  0
   37.7735   45.1912   -5.4765 C   0  0  0  0  0  0  0  0  0  0  0  0
   37.5209   45.6242   -6.8584 O   0  0  0  0  0  0  0  0  0  0  0  0
   35.3874   40.9395   -1.9587 C   0  0  1  0  0  0  0  0  0  0  0  0
   36.4812   40.1054   -2.3473 O   0  0  0  0  0  0  0  0  0  0  0  0
   38.0787   44.5676   -9.7025 C   0  0  0  0  0  0  0  0  0  0  0  0
   38.4773   45.9225   -9.2962 N   0  0  0  0  0  0  0  0  0  0  0  0
  1  2  1  6  0  0  0
  1  7  1  0  0  0  0
  1 30  1  0  0  0  0
  3  4  1  1  0  0  0
  3  9  1  0  0  0  0
  3 39  1  0  0  0  0
  5 10  1  0  0  0  0
  5 26  1  0  0  0  0
  5 32  1  1  0  0  0
  6 12  1  0  0  0  0
  6 36  1  0  0  0  0
  6 19  1  1  0  0  0
  7  8  1  1  0  0  0
  7 14  1  0  0  0  0
  9 16  1  0  0  0  0
 10 11  1  1  0  0  0
 10 18  1  0  0  0  0
 12 13  1  1  0  0  0
 12 20  1  0  0  0  0
 14 15  1  1  0  0  0
 14 22  1  0  0  0  0
 16 17  1  6  0  0  0
 16 24  1  0  0  0  0
 18 19  1  6  0  0  0
 18 25  1  0  0  0  0
 20 21  1  6  0  0  0
 20 27  1  0  0  0  0
 22 23  1  6  0  0  0
 22 29  1  0  0  0  0
 24  2  1  6  0  0  0
 24 31  1  0  0  0  0
 25 26  1  0  0  0  0
 25 33  1  1  0  0  0
 27 28  1  1  0  0  0
 27 35  1  0  0  0  0
 29 30  1  0  0  0  0
 29 37  1  6  0  0  0
 31 32  1  6  0  0  0
 31 39  1  0  0  0  0
 33 34  1  0  0  0  0
 35 36  1  0  0  0  0
 35 41  1  1  0  0  0
 37 38  1  0  0  0  0
 39 40  1  6  0  0  0
 41 42  1  0  0  0  0
M  END
>  <CHROM.1>
-143.92593635,64.53786675,-134.40900142,-155.20680561,56.66435512,27.46038505
-65.23900820,134.35009240,-41.35467439,37.06955353,43.36543961,-4.92283040
3.00447403,-0.92375694,2.90921421

>  <Name>
3c44_lig

>  <RI>
0

>  <Rbt.Current_Directory>
/home/itssahil/PROJECTS/Mol_Feturizer/New_Systems/rnas/3c44

>  <Rbt.Executable>
rbdock ($Id: //depot/dev/client3/rdock/2013.1/src/exe/rbdock.cxx#4 $)

>  <Rbt.Library>
libRbt.so (2013.1, Build901 2013/11/27)

>  <Rbt.Parameter_File>
/export/apps/rDock/src/rDock_2013.1_src/data/scripts/dock_solv.prm

>  <Rbt.Receptor>
prm/blind_docking_100.prm

>  <SCORE>
46.5573

>  <SCORE.INTER>
25.8791

>  <SCORE.INTER.CONST>
1

>  <SCORE.INTER.POLAR>
-0.698734

>  <SCORE.INTER.ROT>
9

>  <SCORE.INTER.SOLV>
22.4465

>  <SCORE.INTER.VDW>
2.4997

>  <SCORE.INTER.norm>
0.61617

>  <SCORE.INTRA>
16.9055

>  <SCORE.INTRA.DIHEDRAL>
9.60243

>  <SCORE.INTRA.DIHEDRAL.0>
14.8538

>  <SCORE.INTRA.POLAR>
0

>  <SCORE.INTRA.POLAR.0>
0

>  <SCORE.INTRA.REPUL>
1.63041e-05

>  <SCORE.INTRA.REPUL.0>
0

>  <SCORE.INTRA.SOLV>
4.50959

>  <SCORE.INTRA.SOLV.lig_0>
-100.951

>  <SCORE.INTRA.VDW>
9.84942

>  <SCORE.INTRA.VDW.0>
-5.71388

>  <SCORE.INTRA.norm>
0.402512

>  <SCORE.RESTR>
3.77261

>  <SCORE.RESTR.CAVITY>
3.77261

>  <SCORE.RESTR.norm>
0.0898241

>  <SCORE.SYSTEM>
0

>  <SCORE.SYSTEM.CONST>
0

>  <SCORE.SYSTEM.DIHEDRAL>
0

>  <SCORE.SYSTEM.SOLV>
0

>  <SCORE.SYSTEM.norm>
0

>  <SCORE.heavy>
42

>  <SCORE.norm>
1.10851

>  <RMSD>
12.458

$$$$
3c44_lig
 OpenBabel11021811463D
libRbt.so/2013.1/901 2013/11/27
 42 45  0  0  0  0  0  0  0  0999 V2000
   35.2579   43.1367   -2.6431 C   0  0  2  0  0  0  0  0  0  0  0  0
   36.5376   42.8837   -2.0432 O   0  0  0  0  0  0  0  0  0  0  0  0
   40.2536   42.2444   -3.7673 C   0  0  2  0  0  0  0  0  0  0  0  0
   41.4870   41.8368   -4.4576 N   0  0  0  0  0  0  0  0  0  0  0  0
   36.7095   42.2551   -5.9563 C   0  0  1  0  0  0  0  0  0  0  0  0
   37.1646   39.9156   -6.8785 C   0  0  1  0  0  0  0  0  0  0  0  0
   35.0497   44.6503   -2.7594 C   0  0  2  0  0  0  0  0  0  0  0  0
   36.1647   45.2785   -3.4826 N   0  0  0  0  0  0  0  0  0  0  0  0
   39.7770   41.1415   -2.8178 C   0  0  0  0  0  0  0  0  0  0  0  0
   35.2329   42.0602   -6.3039 C   0  0  2  0  0  0  0  0  0  0  0  0
   34.6110   41.2135   -5.3353 O   0  0  0  0  0  0  0  0  0  0  0  0
   38.1367   39.8396   -8.0605 C   0  0  2  0  0  0  0  0  0  0  0  0
   37.7668   38.6835   -8.8886 N   0  0  0  0  0  0  0  0  0  0  0  0
   34.9181   45.3017   -1.3805 C   0  0  1  0  0  0  0  0  0  0  0  0
   34.5685   46.6798   -1.5418 O   0  0  0  0  0  0  0  0  0  0  0  0
   38.5876   41.6916   -2.0235 C   0  0  2  0  0  0  0  0  0  0  0  0
   38.0622   40.6379   -1.1422 N   0  0  0  0  0  0  0  0  0  0  0  0
   35.3770   41.2872   -7.6133 C   0  0  2  0  0  0  0  0  0  0  0  0
   35.8117   39.9399   -7.3667 O   0  0  0  0  0  0  0  0  0  0  0  0
   39.5822   39.6618   -7.5781 C   0  0  1  0  0  0  0  0  0  0  0  0
   40.0556   40.8641   -6.9656 O   0  0  0  0  0  0  0  0  0  0  0  0
   33.8320   44.5901   -0.5717 C   0  0  2  0  0  0  0  0  0  0  0  0
   33.7881   45.1290    0.7522 O   0  0  0  0  0  0  0  0  0  0  0  0
   37.4511   42.2001   -2.9192 C   0  0  2  0  0  0  0  0  0  0  0  0
   36.4995   42.0706   -8.2754 C   0  0  2  0  0  0  0  0  0  0  0  0
   37.3143   42.6118   -7.2131 O   0  0  0  0  0  0  0  0  0  0  0  0
   39.6872   38.5201   -6.5655 C   0  0  2  0  0  0  0  0  0  0  0  0
   39.4278   37.2831   -7.2352 O   0  0  0  0  0  0  0  0  0  0  0  0
   34.1388   43.0931   -0.5085 C   0  0  2  0  0  0  0  0  0  0  0  0
   34.2199   42.5456   -1.8392 O   0  0  0  0  0  0  0  0  0  0  0  0
   37.9063   43.1259   -4.0453 C   0  0  2  0  0  0  0  0  0  0  0  0
   36.8292   43.3041   -4.9796 O   0  0  0  0  0  0  0  0  0  0  0  0
   35.9036   43.1876   -9.1349 C   0  0  0  0  0  0  0  0  0  0  0  0
   34.9211   42.6301  -10.0105 O   0  0  0  0  0  0  0  0  0  0  0  0
   38.6643   38.7488   -5.4496 C   0  0  1  0  0  0  0  0  0  0  0  0
   37.3501   38.7682   -6.0344 O   0  0  0  0  0  0  0  0  0  0  0  0
   33.0038   42.4189    0.2665 C   0  0  0  0  0  0  0  0  0  0  0  0
   31.7491   42.5116   -0.4939 O   0  0  0  0  0  0  0  0  0  0  0  0
   39.1334   42.5527   -4.7640 C   0  0  1  0  0  0  0  0  0  0  0  0
   39.5959   43.4750   -5.7532 O   0  0  0  0  0  0  0  0  0  0  0  0
   38.7199   37.6568   -4.3806 C   0  0  0  0  0  0  0  0  0  0  0  0
   37.6524   37.8875   -3.3973 N   0  0  0  0  0  0  0  0  0  0  0  0
  1  2  1  1  0  0  0
  1  7  1  0  0  0  0
  1 30  1  0  0  0  0
  3  4  1  6  0  0  0
  3  9  1  0  0  0  0
  3 39  1  0  0  0  0
  5 10  1  0  0  0  0
  5 26  1  0  0  0  0
  5 32  1  1  0  0  0
  6 12  1  0  0  0  0
  6 36  1  0  0  0  0
  6 19  1  6  0  0  0
  7  8  1  1  0  0  0
  7 14  1  0  0  0  0
  9 16  1  0  0  0  0
 10 11  1  1  0  0  0
 10 18  1  0  0  0  0
 12 13  1  6  0  0  0
 12 20  1  0  0  0  0
 14 15  1  6  0  0  0
 14 22  1  0  0  0  0
 16 17  1  1  0  0  0
 16 24  1  0  0  0  0
 18 19  1  1  0  0  0
 18 25  1  0  0  0  0
 20 21  1  1  0  0  0
 20 27  1  0  0  0  0
 22 23  1  1  0  0  0
 22 29  1  0  0  0  0
 24  2  1  1  0  0  0
 24 31  1  0  0  0  0
 25 26  1  0  0  0  0
 25 33  1  1  0  0  0
 27 28  1  6  0  0  0
 27 35  1  0  0  0  0
 29 30  1  0  0  0  0
 29 37  1  1  0  0  0
 31 32  1  6  0  0  0
 31 39  1  0  0  0  0
 33 34  1  0  0  0  0
 35 36  1  0  0  0  0
 35 41  1  1  0  0  0
 37 38  1  0  0  0  0
 39 40  1  6  0  0  0
 41 42  1  0  0  0  0
M  END
>  <CHROM.1>
-115.98091619,146.84682228,-89.06254894,-68.39124438,-165.36337064,-51.83823422
66.39760280,-83.11126254,-176.00491976,36.84202478,41.80882524,-4.56586861
2.22036268,-0.67482110,1.41595092

>  <Name>
3c44_lig

>  <RI>
224

>  <Rbt.Current_Directory>
/home/itssahil/PROJECTS/Mol_Feturizer/New_Systems/rnas/3c44

>  <Rbt.Executable>
rbdock ($Id: //depot/dev/client3/rdock/2013.1/src/exe/rbdock.cxx#4 $)

>  <Rbt.Library>
libRbt.so (2013.1, Build901 2013/11/27)

>  <Rbt.Parameter_File>
/export/apps/rDock/src/rDock_2013.1_src/data/scripts/dock_solv.prm

>  <Rbt.Receptor>
prm/blind_docking_60.prm

>  <SCORE>
12.3257

>  <SCORE.INTER>
-9.36205

>  <SCORE.INTER.CONST>
1

>  <SCORE.INTER.POLAR>
-0.5581

>  <SCORE.INTER.ROT>
9

>  <SCORE.INTER.SOLV>
22.4504

>  <SCORE.INTER.VDW>
-21.4645

>  <SCORE.INTER.norm>
-0.222906

>  <SCORE.INTRA>
14.3018

>  <SCORE.INTRA.DIHEDRAL>
4.32339

>  <SCORE.INTRA.DIHEDRAL.0>
14.8538

>  <SCORE.INTRA.POLAR>
0

>  <SCORE.INTRA.POLAR.0>
0

>  <SCORE.INTRA.REPUL>
0

>  <SCORE.INTRA.REPUL.0>
0

>  <SCORE.INTRA.SOLV>
4.08175

>  <SCORE.INTRA.SOLV.lig_0>
-100.951

>  <SCORE.INTRA.VDW>
10.0992

>  <SCORE.INTRA.VDW.0>
-5.71388

>  <SCORE.INTRA.norm>
0.340518

>  <SCORE.RESTR>
7.38595

>  <SCORE.RESTR.CAVITY>
7.38595

>  <SCORE.RESTR.norm>
0.175856

>  <SCORE.SYSTEM>
0

>  <SCORE.SYSTEM.CONST>
0

>  <SCORE.SYSTEM.DIHEDRAL>
0

>  <SCORE.SYSTEM.SOLV>
0

>  <SCORE.SYSTEM.norm>
0

>  <SCORE.heavy>
42

>  <SCORE.norm>
0.293468

>  <RMSD>
12.462

$$$$
3c44_lig
 OpenBabel11021811463D
libRbt.so/2013.1/901 2013/11/27
 42 45  0  0  0  0  0  0  0  0999 V2000
   38.1705   40.6504   -7.0424 C   0  0  2  0  0  0  0  0  0  0  0  0
   37.0629   41.4286   -6.5634 O   0  0  0  0  0  0  0  0  0  0  0  0
   38.5277   44.9059   -8.2817 C   0  0  2  0  0  0  0  0  0  0  0  0
   38.8475   46.1694   -8.9636 N   0  0  0  0  0  0  0  0  0  0  0  0
   36.2952   43.0018   -4.3153 C   0  0  1  0  0  0  0  0  0  0  0  0
   36.8755   40.2527   -1.1816 C   0  0  1  0  0  0  0  0  0  0  0  0
   38.1551   39.2811   -6.3548 C   0  0  2  0  0  0  0  0  0  0  0  0
   36.8563   38.6174   -6.5378 N   0  0  0  0  0  0  0  0  0  0  0  0
   37.9059   43.9063   -9.2612 C   0  0  0  0  0  0  0  0  0  0  0  0
   37.2138   43.3771   -3.1515 C   0  0  2  0  0  0  0  0  0  0  0  0
   38.5596   43.0023   -3.4513 O   0  0  0  0  0  0  0  0  0  0  0  0
   36.9378   38.7754   -1.5835 C   0  0  2  0  0  0  0  0  0  0  0  0
   35.9537   38.5455   -2.6502 N   0  0  0  0  0  0  0  0  0  0  0  0
   38.4453   39.4071   -4.8571 C   0  0  1  0  0  0  0  0  0  0  0  0
   38.5774   38.0995   -4.2911 O   0  0  0  0  0  0  0  0  0  0  0  0
   37.7447   42.5715   -8.5262 C   0  0  2  0  0  0  0  0  0  0  0  0
   37.0925   41.6008   -9.4180 N   0  0  0  0  0  0  0  0  0  0  0  0
   36.6678   42.4361   -2.0795 C   0  0  2  0  0  0  0  0  0  0  0  0
   37.0544   41.0780   -2.3461 O   0  0  0  0  0  0  0  0  0  0  0  0
   36.6033   37.8638   -0.3955 C   0  0  1  0  0  0  0  0  0  0  0  0
   37.6621   37.8874    0.5654 O   0  0  0  0  0  0  0  0  0  0  0  0
   39.7421   40.1899   -4.6436 C   0  0  2  0  0  0  0  0  0  0  0  0
   39.9516   40.4002   -3.2447 O   0  0  0  0  0  0  0  0  0  0  0  0
   36.9212   42.6911   -7.2378 C   0  0  2  0  0  0  0  0  0  0  0  0
   35.1728   42.5935   -2.3079 C   0  0  2  0  0  0  0  0  0  0  0  0
   34.9941   42.9006   -3.7075 O   0  0  0  0  0  0  0  0  0  0  0  0
   35.3086   38.3055    0.2888 C   0  0  2  0  0  0  0  0  0  0  0  0
   34.2130   38.0726   -0.6009 O   0  0  0  0  0  0  0  0  0  0  0  0
   39.6496   41.5386   -5.3590 C   0  0  2  0  0  0  0  0  0  0  0  0
   39.4038   41.3397   -6.7651 O   0  0  0  0  0  0  0  0  0  0  0  0
   37.3498   43.8370   -6.3235 C   0  0  2  0  0  0  0  0  0  0  0  0
   36.3496   44.0378   -5.3115 O   0  0  0  0  0  0  0  0  0  0  0  0
   34.6382   43.7229   -1.4246 C   0  0  0  0  0  0  0  0  0  0  0  0
   33.2280   43.8443   -1.6235 O   0  0  0  0  0  0  0  0  0  0  0  0
   35.4104   39.7936    0.6336 C   0  0  1  0  0  0  0  0  0  0  0  0
   35.5979   40.5314   -0.5870 O   0  0  0  0  0  0  0  0  0  0  0  0
   40.9832   42.2630   -5.1583 C   0  0  0  0  0  0  0  0  0  0  0  0
   40.9897   43.5256   -5.9110 O   0  0  0  0  0  0  0  0  0  0  0  0
   37.5527   45.1296   -7.1230 C   0  0  1  0  0  0  0  0  0  0  0  0
   38.0386   46.1642   -6.2647 O   0  0  0  0  0  0  0  0  0  0  0  0
   34.1582   40.3105    1.3430 C   0  0  0  0  0  0  0  0  0  0  0  0
   34.0853   39.7205    2.6870 N   0  0  0  0  0  0  0  0  0  0  0  0
  1  2  1  1  0  0  0
  1  7  1  0  0  0  0
  1 30  1  0  0  0  0
  3  4  1  6  0  0  0
  3  9  1  0  0  0  0
  3 39  1  0  0  0  0
  5 10  1  0  0  0  0
  5 26  1  0  0  0  0
  5 32  1  6  0  0  0
  6 12  1  0  0  0  0
  6 36  1  0  0  0  0
  6 19  1  6  0  0  0
  7  8  1  1  0  0  0
  7 14  1  0  0  0  0
  9 16  1  0  0  0  0
 10 11  1  6  0  0  0
 10 18  1  0  0  0  0
 12 13  1  6  0  0  0
 12 20  1  0  0  0  0
 14 15  1  6  0  0  0
 14 22  1  0  0  0  0
 16 17  1  6  0  0  0
 16 24  1  0  0  0  0
 18 19  1  6  0  0  0
 18 25  1  0  0  0  0
 20 21  1  1  0  0  0
 20 27  1  0  0  0  0
 22 23  1  1  0  0  0
 22 29  1  0  0  0  0
 24  2  1  1  0  0  0
 24 31  1  0  0  0  0
 25 26  1  0  0  0  0
 25 33  1  1  0  0  0
 27 28  1  6  0  0  0
 27 35  1  0  0  0  0
 29 30  1  0  0  0  0
 29 37  1  6  0  0  0
 31 32  1  1  0  0  0
 31 39  1  0  0  0  0
 33 34  1  0  0  0  0
 35 36  1  0  0  0  0
 35 41  1  6  0  0  0
 37 38  1  0  0  0  0
 39 40  1  1  0  0  0
 41 42  1  0  0  0  0
M  END
>  <CHROM.1>
-174.83719958,91.11272533,165.26734688,163.98460528,17.17596324,-178.73089558
175.75334510,71.44944141,69.07461902,37.16564683,41.52571364,-4.00504267
-1.02099176,-0.89821676,2.50939351

>  <Name>
3c44_lig

>  <RI>
0

>  <Rbt.Current_Directory>
/home/itssahil/PROJECTS/Mol_Feturizer/New_Systems/rnas/3c44

>  <Rbt.Executable>
rbdock ($Id: //depot/dev/client3/rdock/2013.1/src/exe/rbdock.cxx#4 $)

>  <Rbt.Library>
libRbt.so (2013.1, Build901 2013/11/27)

>  <Rbt.Parameter_File>
/export/apps/rDock/src/rDock_2013.1_src/data/scripts/dock_solv.prm

>  <Rbt.Receptor>
prm/blind_docking_100.prm

>  <SCORE>
4.21203

>  <SCORE.INTER>
-10.4273

>  <SCORE.INTER.CONST>
1

>  <SCORE.INTER.POLAR>
-0.452444

>  <SCORE.INTER.ROT>
9

>  <SCORE.INTER.SOLV>
19.1121

>  <SCORE.INTER.VDW>
-21.4141

>  <SCORE.INTER.norm>
-0.24827

>  <SCORE.INTRA>
8.29644

>  <SCORE.INTRA.DIHEDRAL>
-1.66987

>  <SCORE.INTRA.DIHEDRAL.0>
14.8538

>  <SCORE.INTRA.POLAR>
0

>  <SCORE.INTRA.POLAR.0>
0

>  <SCORE.INTRA.REPUL>
0.11713

>  <SCORE.INTRA.REPUL.0>
0

>  <SCORE.INTRA.SOLV>
1.19496

>  <SCORE.INTRA.SOLV.lig_0>
-100.951

>  <SCORE.INTRA.VDW>
7.94825

>  <SCORE.INTRA.VDW.0>
-5.71388

>  <SCORE.INTRA.norm>
0.197534

>  <SCORE.RESTR>
6.34293

>  <SCORE.RESTR.CAVITY>
6.34293

>  <SCORE.RESTR.norm>
0.151022

>  <SCORE.SYSTEM>
0

>  <SCORE.SYSTEM.CONST>
0

>  <SCORE.SYSTEM.DIHEDRAL>
0

>  <SCORE.SYSTEM.SOLV>
0

>  <SCORE.SYSTEM.norm>
0

>  <SCORE.heavy>
42

>  <SCORE.norm>
0.100286

>  <RMSD>
12.512

$$$$
3c44_lig
 OpenBabel11021811463D
libRbt.so/2013.1/901 2013/11/27
 42 45  0  0  0  0  0  0  0  0999 V2000
   37.3337   42.7945   -7.6392 C   0  0  2  0  0  0  0  0  0  0  0  0
   38.6137   42.2233   -7.3281 O   0  0  0  0  0  0  0  0  0  0  0  0
   36.6083   38.7253   -6.3626 C   0  0  2  0  0  0  0  0  0  0  0  0
   36.0852   37.3862   -6.0513 N   0  0  0  0  0  0  0  0  0  0  0  0
   38.6955   41.8889   -3.6061 C   0  0  1  0  0  0  0  0  0  0  0  0
   35.9759   43.4508   -0.8203 C   0  0  1  0  0  0  0  0  0  0  0  0
   37.5427   44.1528   -8.3170 C   0  0  2  0  0  0  0  0  0  0  0  0
   38.4218   44.0241   -9.4882 N   0  0  0  0  0  0  0  0  0  0  0  0
   37.2642   38.7401   -7.7464 C   0  0  0  0  0  0  0  0  0  0  0  0
   37.7319   41.1531   -2.6739 C   0  0  2  0  0  0  0  0  0  0  0  0
   36.4082   41.1918   -3.2106 O   0  0  0  0  0  0  0  0  0  0  0  0
   34.8526   42.5005   -1.2480 C   0  0  2  0  0  0  0  0  0  0  0  0
   34.5462   42.7552   -2.6623 N   0  0  0  0  0  0  0  0  0  0  0  0
   38.1477   45.1714   -7.3476 C   0  0  1  0  0  0  0  0  0  0  0  0
   38.1764   46.4579   -7.9733 O   0  0  0  0  0  0  0  0  0  0  0  0
   37.6433   40.1897   -8.0674 C   0  0  2  0  0  0  0  0  0  0  0  0
   38.3330   40.2360   -9.3656 N   0  0  0  0  0  0  0  0  0  0  0  0
   37.7971   42.0746   -1.4575 C   0  0  2  0  0  0  0  0  0  0  0  0
   37.0972   43.3042   -1.7093 O   0  0  0  0  0  0  0  0  0  0  0  0
   33.5843   42.7325   -0.4164 C   0  0  1  0  0  0  0  0  0  0  0  0
   33.7764   42.2756    0.9250 O   0  0  0  0  0  0  0  0  0  0  0  0
   37.3030   45.2411   -6.0741 C   0  0  2  0  0  0  0  0  0  0  0  0
   37.9311   46.1104   -5.1280 O   0  0  0  0  0  0  0  0  0  0  0  0
   38.5480   40.8236   -7.0033 C   0  0  2  0  0  0  0  0  0  0  0  0
   39.2922   42.3443   -1.3941 C   0  0  2  0  0  0  0  0  0  0  0  0
   39.7899   42.2586   -2.7469 O   0  0  0  0  0  0  0  0  0  0  0  0
   33.2135   44.2161   -0.3818 C   0  0  2  0  0  0  0  0  0  0  0  0
   32.8057   44.6212   -1.6917 O   0  0  0  0  0  0  0  0  0  0  0  0
   37.1646   43.8410   -5.4743 C   0  0  2  0  0  0  0  0  0  0  0  0
   36.5640   42.9470   -6.4320 O   0  0  0  0  0  0  0  0  0  0  0  0
   38.0604   40.6295   -5.5690 C   0  0  2  0  0  0  0  0  0  0  0  0
   39.1078   40.9972   -4.6566 O   0  0  0  0  0  0  0  0  0  0  0  0
   39.9606   41.3017   -0.4953 C   0  0  0  0  0  0  0  0  0  0  0  0
   40.2498   40.1347   -1.2683 O   0  0  0  0  0  0  0  0  0  0  0  0
   34.4325   45.0234    0.0723 C   0  0  1  0  0  0  0  0  0  0  0  0
   35.4987   44.8048   -0.8683 O   0  0  0  0  0  0  0  0  0  0  0  0
   36.2749   43.9533   -4.2336 C   0  0  0  0  0  0  0  0  0  0  0  0
   36.6999   45.0940   -3.4096 O   0  0  0  0  0  0  0  0  0  0  0  0
   37.6399   39.1753   -5.3250 C   0  0  1  0  0  0  0  0  0  0  0  0
   37.1044   39.0358   -4.0071 O   0  0  0  0  0  0  0  0  0  0  0  0
   34.1370   46.5216    0.1540 C   0  0  0  0  0  0  0  0  0  0  0  0
   33.9186   47.0461   -1.2013 N   0  0  0  0  0  0  0  0  0  0  0  0
  1  2  1  1  0  0  0
  1  7  1  0  0  0  0
  1 30  1  0  0  0  0
  3  4  1  1  0  0  0
  3  9  1  0  0  0  0
  3 39  1  0  0  0  0
  5 10  1  0  0  0  0
  5 26  1  0  0  0  0
  5 32  1  6  0  0  0
  6 12  1  0  0  0  0
  6 36  1  0  0  0  0
  6 19  1  6  0  0  0
  7  8  1  6  0  0  0
  7 14  1  0  0  0  0
  9 16  1  0  0  0  0
 10 11  1  6  0  0  0
 10 18  1  0  0  0  0
 12 13  1  6  0  0  0
 12 20  1  0  0  0  0
 14 15  1  6  0  0  0
 14 22  1  0  0  0  0
 16 17  1  6  0  0  0
 16 24  1  0  0  0  0
 18 19  1  6  0  0  0
 18 25  1  0  0  0  0
 20 21  1  1  0  0  0
 20 27  1  0  0  0  0
 22 23  1  1  0  0  0
 22 29  1  0  0  0  0
 24  2  1  6  0  0  0
 24 31  1  0  0  0  0
 25 26  1  0  0  0  0
 25 33  1  1  0  0  0
 27 28  1  6  0  0  0
 27 35  1  0  0  0  0
 29 30  1  0  0  0  0
 29 37  1  1  0  0  0
 31 32  1  1  0  0  0
 31 39  1  0  0  0  0
 33 34  1  0  0  0  0
 35 36  1  0  0  0  0
 35 41  1  6  0  0  0
 37 38  1  0  0  0  0
 39 40  1  1  0  0  0
 41 42  1  0  0  0  0
M  END
>  <CHROM.1>
-165.24656461,67.38437873,-73.81670998,116.75717090,45.49880567,85.01722202
-46.08667484,130.83432908,-67.93990340,36.92245643,42.63046566,-4.01293261
0.34124699,1.13300468,-0.77141680

>  <Name>
3c44_lig

>  <RI>
224

>  <Rbt.Current_Directory>
/home/itssahil/PROJECTS/Mol_Feturizer/New_Systems/rnas/3c44

>  <Rbt.Executable>
rbdock ($Id: //depot/dev/client3/rdock/2013.1/src/exe/rbdock.cxx#4 $)

>  <Rbt.Library>
libRbt.so (2013.1, Build901 2013/11/27)

>  <Rbt.Parameter_File>
/export/apps/rDock/src/rDock_2013.1_src/data/scripts/dock_solv.prm

>  <Rbt.Receptor>
prm/blind_docking_60.prm

>  <SCORE>
28.5897

>  <SCORE.INTER>
3.19884

>  <SCORE.INTER.CONST>
1

>  <SCORE.INTER.POLAR>
-0.208605

>  <SCORE.INTER.ROT>
9

>  <SCORE.INTER.SOLV>
19.9414

>  <SCORE.INTER.VDW>
-13.4192

>  <SCORE.INTER.norm>
0.0761629

>  <SCORE.INTRA>
14.849

>  <SCORE.INTRA.DIHEDRAL>
4.76162

>  <SCORE.INTRA.DIHEDRAL.0>
14.8538

>  <SCORE.INTRA.POLAR>
0

>  <SCORE.INTRA.POLAR.0>
0

>  <SCORE.INTRA.REPUL>
0.0202157

>  <SCORE.INTRA.REPUL.0>
0

>  <SCORE.INTRA.SOLV>
5.58028

>  <SCORE.INTRA.SOLV.lig_0>
-100.951

>  <SCORE.INTRA.VDW>
9.57693

>  <SCORE.INTRA.VDW.0>
-5.71388

>  <SCORE.INTRA.norm>
0.353546

>  <SCORE.RESTR>
10.5419

>  <SCORE.RESTR.CAVITY>
10.5419

>  <SCORE.RESTR.norm>
0.250999

>  <SCORE.SYSTEM>
0

>  <SCORE.SYSTEM.CONST>
0

>  <SCORE.SYSTEM.DIHEDRAL>
0

>  <SCORE.SYSTEM.SOLV>
0

>  <SCORE.SYSTEM.norm>
0

>  <SCORE.heavy>
42

>  <SCORE.norm>
0.680708

>  <RMSD>
12.516

$$$$
3c44_lig
 OpenBabel11021811463D
libRbt.so/2013.1/901 2013/11/27
 42 45  0  0  0  0  0  0  0  0999 V2000
   34.2403   39.4741    0.5624 C   0  0  2  0  0  0  0  0  0  0  0  0
   35.0194   40.6436    0.8572 O   0  0  0  0  0  0  0  0  0  0  0  0
   32.3349   42.8075   -1.4450 C   0  0  2  0  0  0  0  0  0  0  0  0
   31.4457   43.7455   -2.1474 N   0  0  0  0  0  0  0  0  0  0  0  0
   36.8235   41.6401   -2.2193 C   0  0  1  0  0  0  0  0  0  0  0  0
   38.1544   40.4706   -6.0513 C   0  0  1  0  0  0  0  0  0  0  0  0
   34.3893   38.4704    1.7106 C   0  0  2  0  0  0  0  0  0  0  0  0
   34.0420   39.0908    2.9972 N   0  0  0  0  0  0  0  0  0  0  0  0
   32.0854   42.8554    0.0651 C   0  0  0  0  0  0  0  0  0  0  0  0
   37.2484   42.5258   -3.3915 C   0  0  2  0  0  0  0  0  0  0  0  0
   36.1754   42.6450   -4.3274 O   0  0  0  0  0  0  0  0  0  0  0  0
   39.3409   39.5162   -6.2216 C   0  0  2  0  0  0  0  0  0  0  0  0
   40.4039   39.9317   -5.2961 N   0  0  0  0  0  0  0  0  0  0  0  0
   35.8164   37.9223    1.7891 C   0  0  1  0  0  0  0  0  0  0  0  0
   35.8672   36.8786    2.7666 O   0  0  0  0  0  0  0  0  0  0  0  0
   32.9273   41.7507    0.7124 C   0  0  2  0  0  0  0  0  0  0  0  0
   32.7610   41.8048    2.1727 N   0  0  0  0  0  0  0  0  0  0  0  0
   38.3363   41.6427   -3.9996 C   0  0  2  0  0  0  0  0  0  0  0  0
   37.7600   40.5089   -4.6685 O   0  0  0  0  0  0  0  0  0  0  0  0
   39.8862   39.5609   -7.6551 C   0  0  1  0  0  0  0  0  0  0  0  0
   38.9637   38.9476   -8.5594 O   0  0  0  0  0  0  0  0  0  0  0  0
   36.2350   37.3671    0.4264 C   0  0  2  0  0  0  0  0  0  0  0  0
   37.6042   36.9573    0.4747 O   0  0  0  0  0  0  0  0  0  0  0  0
   34.4206   41.8610    0.3798 C   0  0  2  0  0  0  0  0  0  0  0  0
   39.0535   41.1803   -2.7410 C   0  0  2  0  0  0  0  0  0  0  0  0
   38.0695   41.1565   -1.6843 O   0  0  0  0  0  0  0  0  0  0  0  0
   40.1312   41.0020   -8.1052 C   0  0  2  0  0  0  0  0  0  0  0  0
   41.2125   41.5467   -7.3434 O   0  0  0  0  0  0  0  0  0  0  0  0
   36.0578   38.4466   -0.6425 C   0  0  2  0  0  0  0  0  0  0  0  0
   34.6877   38.8926   -0.6764 O   0  0  0  0  0  0  0  0  0  0  0  0
   34.7196   42.0579   -1.1049 C   0  0  2  0  0  0  0  0  0  0  0  0
   36.0965   42.4357   -1.2669 O   0  0  0  0  0  0  0  0  0  0  0  0
   40.1881   42.1535   -2.4140 C   0  0  0  0  0  0  0  0  0  0  0  0
   40.8091   41.7532   -1.1905 O   0  0  0  0  0  0  0  0  0  0  0  0
   38.8550   41.8175   -7.8809 C   0  0  1  0  0  0  0  0  0  0  0  0
   38.5372   41.7877   -6.4783 O   0  0  0  0  0  0  0  0  0  0  0  0
   36.4418   37.8322   -1.9910 C   0  0  0  0  0  0  0  0  0  0  0  0
   35.9053   38.6494   -3.0888 O   0  0  0  0  0  0  0  0  0  0  0  0
   33.8074   43.1314   -1.7103 C   0  0  1  0  0  0  0  0  0  0  0  0
   34.0419   43.2362   -3.1163 O   0  0  0  0  0  0  0  0  0  0  0  0
   39.0112   43.2716   -8.3276 C   0  0  0  0  0  0  0  0  0  0  0  0
   37.7489   43.9872   -8.0952 N   0  0  0  0  0  0  0  0  0  0  0  0
  1  2  1  1  0  0  0
  1  7  1  0  0  0  0
  1 30  1  0  0  0  0
  3  4  1  6  0  0  0
  3  9  1  0  0  0  0
  3 39  1  0  0  0  0
  5 10  1  0  0  0  0
  5 26  1  0  0  0  0
  5 32  1  1  0  0  0
  6 12  1  0  0  0  0
  6 36  1  0  0  0  0
  6 19  1  1  0  0  0
  7  8  1  1  0  0  0
  7 14  1  0  0  0  0
  9 16  1  0  0  0  0
 10 11  1  6  0  0  0
 10 18  1  0  0  0  0
 12 13  1  1  0  0  0
 12 20  1  0  0  0  0
 14 15  1  1  0  0  0
 14 22  1  0  0  0  0
 16 17  1  1  0  0  0
 16 24  1  0  0  0  0
 18 19  1  1  0  0  0
 18 25  1  0  0  0  0
 20 21  1  6  0  0  0
 20 27  1  0  0  0  0
 22 23  1  1  0  0  0
 22 29  1  0  0  0  0
 24  2  1  6  0  0  0
 24 31  1  0  0  0  0
 25 26  1  0  0  0  0
 25 33  1  1  0  0  0
 27 28  1  1  0  0  0
 27 35  1  0  0  0  0
 29 30  1  0  0  0  0
 29 37  1  6  0  0  0
 31 32  1  1  0  0  0
 31 39  1  0  0  0  0
 33 34  1  0  0  0  0
 35 36  1  0  0  0  0
 35 41  1  1  0  0  0
 37 38  1  0  0  0  0
 39 40  1  6  0  0  0
 41 42  1  0  0  0  0
M  END
>  <CHROM.1>
-145.38934953,115.43339451,97.33871547,122.27004733,42.64730434,176.83383875
162.26846645,128.46989196,179.47042894,36.64291347,40.78140266,-2.60298013
-2.32712744,0.66674714,-0.88612415

>  <Name>
3c44_lig

>  <RI>
0

>  <Rbt.Current_Directory>
/home/itssahil/PROJECTS/Mol_Feturizer/New_Systems/rnas/3c44

>  <Rbt.Executable>
rbdock ($Id: //depot/dev/client3/rdock/2013.1/src/exe/rbdock.cxx#4 $)

>  <Rbt.Library>
libRbt.so (2013.1, Build901 2013/11/27)

>  <Rbt.Parameter_File>
/export/apps/rDock/src/rDock_2013.1_src/data/scripts/dock_solv.prm

>  <Rbt.Receptor>
prm/blind_docking_100.prm

>  <SCORE>
17.1005

>  <SCORE.INTER>
-4.17836

>  <SCORE.INTER.CONST>
1

>  <SCORE.INTER.POLAR>
-0.350943

>  <SCORE.INTER.ROT>
9

>  <SCORE.INTER.SOLV>
17.3334

>  <SCORE.INTER.VDW>
-16.9936

>  <SCORE.INTER.norm>
-0.0994849

>  <SCORE.INTRA>
13.2097

>  <SCORE.INTRA.DIHEDRAL>
17.7827

>  <SCORE.INTRA.DIHEDRAL.0>
14.8538

>  <SCORE.INTRA.POLAR>
0

>  <SCORE.INTRA.POLAR.0>
0

>  <SCORE.INTRA.REPUL>
0.00306435

>  <SCORE.INTRA.REPUL.0>
0

>  <SCORE.INTRA.SOLV>
0.779144

>  <SCORE.INTRA.SOLV.lig_0>
-100.951

>  <SCORE.INTRA.VDW>
3.91346

>  <SCORE.INTRA.VDW.0>
-5.71388

>  <SCORE.INTRA.norm>
0.314517

>  <SCORE.RESTR>
8.06913

>  <SCORE.RESTR.CAVITY>
8.06913

>  <SCORE.RESTR.norm>
0.192122

>  <SCORE.SYSTEM>
0

>  <SCORE.SYSTEM.CONST>
0

>  <SCORE.SYSTEM.DIHEDRAL>
0

>  <SCORE.SYSTEM.SOLV>
0

>  <SCORE.SYSTEM.norm>
0

>  <SCORE.heavy>
42

>  <SCORE.norm>
0.407155

>  <RMSD>
12.561

$$$$
3c44_lig
 OpenBabel11021811463D
libRbt.so/2013.1/901 2013/11/27
 42 45  0  0  0  0  0  0  0  0999 V2000
   35.3469   40.0477    1.2834 C   0  0  2  0  0  0  0  0  0  0  0  0
   34.7192   40.4313    0.0502 O   0  0  0  0  0  0  0  0  0  0  0  0
   33.6130   43.9066   -1.9217 C   0  0  2  0  0  0  0  0  0  0  0  0
   33.3360   45.2422   -2.4723 N   0  0  0  0  0  0  0  0  0  0  0  0
   37.3844   41.9691   -2.9045 C   0  0  1  0  0  0  0  0  0  0  0  0
   39.4087   42.4003   -6.3807 C   0  0  1  0  0  0  0  0  0  0  0  0
   36.0982   38.7288    1.0738 C   0  0  2  0  0  0  0  0  0  0  0  0
   37.0407   38.8355   -0.0493 N   0  0  0  0  0  0  0  0  0  0  0  0
   33.2046   43.8352   -0.4475 C   0  0  0  0  0  0  0  0  0  0  0  0
   38.8399   41.5095   -2.8080 C   0  0  2  0  0  0  0  0  0  0  0  0
   39.6547   42.5707   -2.3063 O   0  0  0  0  0  0  0  0  0  0  0  0
   40.8946   42.3371   -6.7493 C   0  0  2  0  0  0  0  0  0  0  0  0
   41.5530   43.5391   -6.2194 N   0  0  0  0  0  0  0  0  0  0  0  0
   35.1306   37.5733    0.8062 C   0  0  1  0  0  0  0  0  0  0  0  0
   35.8619   36.3439    0.7755 O   0  0  0  0  0  0  0  0  0  0  0  0
   33.3737   42.3838    0.0137 C   0  0  2  0  0  0  0  0  0  0  0  0
   33.0487   42.2871    1.4448 N   0  0  0  0  0  0  0  0  0  0  0  0
   39.1461   41.3129   -4.2914 C   0  0  2  0  0  0  0  0  0  0  0  0
   39.2706   42.5788   -4.9601 O   0  0  0  0  0  0  0  0  0  0  0  0
   41.0864   42.2968   -8.2710 C   0  0  1  0  0  0  0  0  0  0  0  0
   40.6639   41.0348   -8.7942 O   0  0  0  0  0  0  0  0  0  0  0  0
   34.0755   37.5130    1.9122 C   0  0  2  0  0  0  0  0  0  0  0  0
   33.1108   36.5042    1.6014 O   0  0  0  0  0  0  0  0  0  0  0  0
   34.7920   41.8442   -0.2094 C   0  0  2  0  0  0  0  0  0  0  0  0
   37.8720   40.6198   -4.7479 C   0  0  2  0  0  0  0  0  0  0  0  0
   36.8105   41.0889   -3.8886 O   0  0  0  0  0  0  0  0  0  0  0  0
   40.2854   43.4056   -8.9556 C   0  0  2  0  0  0  0  0  0  0  0  0
   40.8529   44.6705   -8.6033 O   0  0  0  0  0  0  0  0  0  0  0  0
   33.3810   38.8704    2.0317 C   0  0  2  0  0  0  0  0  0  0  0  0
   34.3488   39.9013    2.3107 O   0  0  0  0  0  0  0  0  0  0  0  0
   35.3489   42.1032   -1.6078 C   0  0  2  0  0  0  0  0  0  0  0  0
   36.7587   41.8254   -1.6174 O   0  0  0  0  0  0  0  0  0  0  0  0
   38.0458   39.1041   -4.6298 C   0  0  0  0  0  0  0  0  0  0  0  0
   37.1975   38.4607   -5.5834 O   0  0  0  0  0  0  0  0  0  0  0  0
   38.8283   43.3256   -8.4925 C   0  0  1  0  0  0  0  0  0  0  0  0
   38.7944   43.5037   -7.0654 O   0  0  0  0  0  0  0  0  0  0  0  0
   32.3715   38.7761    3.1787 C   0  0  0  0  0  0  0  0  0  0  0  0
   33.0768   38.6518    4.4625 O   0  0  0  0  0  0  0  0  0  0  0  0
   35.0979   43.5533   -2.0379 C   0  0  1  0  0  0  0  0  0  0  0  0
   35.5461   43.7495   -3.3809 O   0  0  0  0  0  0  0  0  0  0  0  0
   37.9523   44.3924   -9.1505 C   0  0  0  0  0  0  0  0  0  0  0  0
   38.4050   45.7228   -8.7206 N   0  0  0  0  0  0  0  0  0  0  0  0
  1  2  1  6  0  0  0
  1  7  1  0  0  0  0
  1 30  1  0  0  0  0
  3  4  1  1  0  0  0
  3  9  1  0  0  0  0
  3 39  1  0  0  0  0
  5 10  1  0  0  0  0
  5 26  1  0  0  0  0
  5 32  1  1  0  0  0
  6 12  1  0  0  0  0
  6 36  1  0  0  0  0
  6 19  1  1  0  0  0
  7  8  1  6  0  0  0
  7 14  1  0  0  0  0
  9 16  1  0  0  0  0
 10 11  1  6  0  0  0
 10 18  1  0  0  0  0
 12 13  1  6  0  0  0
 12 20  1  0  0  0  0
 14 15  1  1  0  0  0
 14 22  1  0  0  0  0
 16 17  1  1  0  0  0
 16 24  1  0  0  0  0
 18 19  1  6  0  0  0
 18 25  1  0  0  0  0
 20 21  1  6  0  0  0
 20 27  1  0  0  0  0
 22 23  1  6  0  0  0
 22 29  1  0  0  0  0
 24  2  1  6  0  0  0
 24 31  1  0  0  0  0
 25 26  1  0  0  0  0
 25 33  1  1  0  0  0
 27 28  1  1  0  0  0
 27 35  1  0  0  0  0
 29 30  1  0  0  0  0
 29 37  1  1  0  0  0
 31 32  1  1  0  0  0
 31 39  1  0  0  0  0
 33 34  1  0  0  0  0
 35 36  1  0  0  0  0
 35 41  1  6  0  0  0
 37 38  1  0  0  0  0
 39 40  1  6  0  0  0
 41 42  1  0  0  0  0
M  END
>  <CHROM.1>
-140.18033958,-174.24963457,-92.55580081,-173.50255458,-107.48486164,-152.98762684
68.45053545,176.99937471,-64.47674449,36.71025714,41.37272314,-2.76425447
-2.35116878,0.78579724,-0.56366548

>  <Name>
3c44_lig

>  <RI>
0

>  <Rbt.Current_Directory>
/home/itssahil/PROJECTS/Mol_Feturizer/New_Systems/rnas/3c44

>  <Rbt.Executable>
rbdock ($Id: //depot/dev/client3/rdock/2013.1/src/exe/rbdock.cxx#4 $)

>  <Rbt.Library>
libRbt.so (2013.1, Build901 2013/11/27)

>  <Rbt.Parameter_File>
/export/apps/rDock/src/rDock_2013.1_src/data/scripts/dock_solv.prm

>  <Rbt.Receptor>
prm/blind_docking_80.prm

>  <SCORE>
-0.639555

>  <SCORE.INTER>
-11.9394

>  <SCORE.INTER.CONST>
1

>  <SCORE.INTER.POLAR>
-0.87178

>  <SCORE.INTER.ROT>
9

>  <SCORE.INTER.SOLV>
20.4756

>  <SCORE.INTER.VDW>
-21.4788

>  <SCORE.INTER.norm>
-0.28427

>  <SCORE.INTRA>
5.29431

>  <SCORE.INTRA.DIHEDRAL>
4.37233

>  <SCORE.INTRA.DIHEDRAL.0>
14.8538

>  <SCORE.INTRA.POLAR>
0

>  <SCORE.INTRA.POLAR.0>
0

>  <SCORE.INTRA.REPUL>
0

>  <SCORE.INTRA.REPUL.0>
0

>  <SCORE.INTRA.SOLV>
-0.100496

>  <SCORE.INTRA.SOLV.lig_0>
-100.951

>  <SCORE.INTRA.VDW>
3.1584

>  <SCORE.INTRA.VDW.0>
-5.71388

>  <SCORE.INTRA.norm>
0.126055

>  <SCORE.RESTR>
6.00549

>  <SCORE.RESTR.CAVITY>
6.00549

>  <SCORE.RESTR.norm>
0.142988

>  <SCORE.SYSTEM>
0

>  <SCORE.SYSTEM.CONST>
0

>  <SCORE.SYSTEM.DIHEDRAL>
0

>  <SCORE.SYSTEM.SOLV>
0

>  <SCORE.SYSTEM.norm>
0

>  <SCORE.heavy>
42

>  <SCORE.norm>
-0.0152275

>  <RMSD>
12.568

$$$$
3c44_lig
 OpenBabel11021811463D
libRbt.so/2013.1/901 2013/11/27
 42 45  0  0  0  0  0  0  0  0999 V2000
   36.1841   43.1634   -1.5267 C   0  0  2  0  0  0  0  0  0  0  0  0
   35.3810   42.0901   -2.0414 O   0  0  0  0  0  0  0  0  0  0  0  0
   34.3046   41.3117    1.8861 C   0  0  2  0  0  0  0  0  0  0  0  0
   33.7713   40.9081    3.1963 N   0  0  0  0  0  0  0  0  0  0  0  0
   36.6090   39.7518   -2.1823 C   0  0  1  0  0  0  0  0  0  0  0  0
   38.2900   40.4275   -5.8099 C   0  0  1  0  0  0  0  0  0  0  0  0
   36.5515   44.1092   -2.6750 C   0  0  2  0  0  0  0  0  0  0  0  0
   35.3466   44.5711   -3.3791 N   0  0  0  0  0  0  0  0  0  0  0  0
   33.1960   41.9042    1.0114 C   0  0  0  0  0  0  0  0  0  0  0  0
   37.5289   38.6195   -2.6414 C   0  0  2  0  0  0  0  0  0  0  0  0
   38.8396   38.8070   -2.1041 O   0  0  0  0  0  0  0  0  0  0  0  0
   39.4779   39.8095   -6.5547 C   0  0  2  0  0  0  0  0  0  0  0  0
   40.7142   40.2285   -5.8799 N   0  0  0  0  0  0  0  0  0  0  0  0
   37.4870   43.4298   -3.6782 C   0  0  1  0  0  0  0  0  0  0  0  0
   37.9267   44.3937   -4.6399 O   0  0  0  0  0  0  0  0  0  0  0  0
   33.8476   42.4420   -0.2669 C   0  0  2  0  0  0  0  0  0  0  0  0
   32.8042   42.9654   -1.1616 N   0  0  0  0  0  0  0  0  0  0  0  0
   37.5651   38.9096   -4.1405 C   0  0  2  0  0  0  0  0  0  0  0  0
   38.3577   40.0760   -4.4167 O   0  0  0  0  0  0  0  0  0  0  0  0
   39.5242   40.2833   -8.0132 C   0  0  1  0  0  0  0  0  0  0  0  0
   38.4534   39.7014   -8.7613 O   0  0  0  0  0  0  0  0  0  0  0  0
   38.6982   42.8480   -2.9469 C   0  0  2  0  0  0  0  0  0  0  0  0
   39.5127   42.1203   -3.8699 O   0  0  0  0  0  0  0  0  0  0  0  0
   34.6587   41.3802   -1.0200 C   0  0  2  0  0  0  0  0  0  0  0  0
   36.0988   39.2183   -4.3986 C   0  0  2  0  0  0  0  0  0  0  0  0
   35.5670   39.7723   -3.1756 O   0  0  0  0  0  0  0  0  0  0  0  0
   39.4135   41.8064   -8.1001 C   0  0  2  0  0  0  0  0  0  0  0  0
   40.5969   42.3882   -7.5458 O   0  0  0  0  0  0  0  0  0  0  0  0
   38.2234   41.9147   -1.8321 C   0  0  2  0  0  0  0  0  0  0  0  0
   37.3726   42.6293   -0.9141 O   0  0  0  0  0  0  0  0  0  0  0  0
   35.6202   40.5843   -0.1399 C   0  0  2  0  0  0  0  0  0  0  0  0
   36.1029   39.4456   -0.8713 O   0  0  0  0  0  0  0  0  0  0  0  0
   35.3666   37.9307   -4.7828 C   0  0  0  0  0  0  0  0  0  0  0  0
   36.0928   37.2728   -5.8234 O   0  0  0  0  0  0  0  0  0  0  0  0
   38.1778   42.2611   -7.3190 C   0  0  1  0  0  0  0  0  0  0  0  0
   38.3328   41.8568   -5.9472 O   0  0  0  0  0  0  0  0  0  0  0  0
   39.4642   41.3966   -1.1004 C   0  0  0  0  0  0  0  0  0  0  0  0
   40.2120   42.5200   -0.5176 O   0  0  0  0  0  0  0  0  0  0  0  0
   34.9298   40.1242    1.1496 C   0  0  1  0  0  0  0  0  0  0  0  0
   35.8696   39.4598    1.9971 O   0  0  0  0  0  0  0  0  0  0  0  0
   37.9831   43.7769   -7.3747 C   0  0  0  0  0  0  0  0  0  0  0  0
   37.3858   44.1407   -8.6672 N   0  0  0  0  0  0  0  0  0  0  0  0
  1  2  1  6  0  0  0
  1  7  1  0  0  0  0
  1 30  1  0  0  0  0
  3  4  1  1  0  0  0
  3  9  1  0  0  0  0
  3 39  1  0  0  0  0
  5 10  1  0  0  0  0
  5 26  1  0  0  0  0
  5 32  1  1  0  0  0
  6 12  1  0  0  0  0
  6 36  1  0  0  0  0
  6 19  1  1  0  0  0
  7  8  1  6  0  0  0
  7 14  1  0  0  0  0
  9 16  1  0  0  0  0
 10 11  1  1  0  0  0
 10 18  1  0  0  0  0
 12 13  1  1  0  0  0
 12 20  1  0  0  0  0
 14 15  1  6  0  0  0
 14 22  1  0  0  0  0
 16 17  1  6  0  0  0
 16 24  1  0  0  0  0
 18 19  1  1  0  0  0
 18 25  1  0  0  0  0
 20 21  1  6  0  0  0
 20 27  1  0  0  0  0
 22 23  1  6  0  0  0
 22 29  1  0  0  0  0
 24  2  1  6  0  0  0
 24 31  1  0  0  0  0
 25 26  1  0  0  0  0
 25 33  1  1  0  0  0
 27 28  1  1  0  0  0
 27 35  1  0  0  0  0
 29 30  1  0  0  0  0
 29 37  1  1  0  0  0
 31 32  1  6  0  0  0
 31 39  1  0  0  0  0
 33 34  1  0  0  0  0
 35 36  1  0  0  0  0
 35 41  1  1  0  0  0
 37 38  1  0  0  0  0
 39 40  1  1  0  0  0
 41 42  1  0  0  0  0
M  END
>  <CHROM.1>
-162.50581310,159.56023276,-94.77632038,-174.46469367,55.12285298,-50.32799467
60.60003965,50.05619229,78.66826439,37.12504909,41.24153802,-3.27419722,-3.14107102
-1.09459722,-3.11563261

>  <Name>
3c44_lig

>  <RI>
224

>  <Rbt.Current_Directory>
/home/itssahil/PROJECTS/Mol_Feturizer/New_Systems/rnas/3c44

>  <Rbt.Executable>
rbdock ($Id: //depot/dev/client3/rdock/2013.1/src/exe/rbdock.cxx#4 $)

>  <Rbt.Library>
libRbt.so (2013.1, Build901 2013/11/27)

>  <Rbt.Parameter_File>
/export/apps/rDock/src/rDock_2013.1_src/data/scripts/dock_solv.prm

>  <Rbt.Receptor>
prm/blind_docking_60.prm

>  <SCORE>
35.8541

>  <SCORE.INTER>
26.6923

>  <SCORE.INTER.CONST>
1

>  <SCORE.INTER.POLAR>
-1.3039

>  <SCORE.INTER.ROT>
9

>  <SCORE.INTER.SOLV>
23.796

>  <SCORE.INTER.VDW>
4.60922

>  <SCORE.INTER.norm>
0.635531

>  <SCORE.INTRA>
4.72662

>  <SCORE.INTRA.DIHEDRAL>
-4.41332

>  <SCORE.INTRA.DIHEDRAL.0>
14.8538

>  <SCORE.INTRA.POLAR>
0

>  <SCORE.INTRA.POLAR.0>
0

>  <SCORE.INTRA.REPUL>
0

>  <SCORE.INTRA.REPUL.0>
0

>  <SCORE.INTRA.SOLV>
1.04238

>  <SCORE.INTRA.SOLV.lig_0>
-100.951

>  <SCORE.INTRA.VDW>
6.41209

>  <SCORE.INTRA.VDW.0>
-5.71388

>  <SCORE.INTRA.norm>
0.112539

>  <SCORE.RESTR>
4.43516

>  <SCORE.RESTR.CAVITY>
4.43516

>  <SCORE.RESTR.norm>
0.105599

>  <SCORE.SYSTEM>
0

>  <SCORE.SYSTEM.CONST>
0

>  <SCORE.SYSTEM.DIHEDRAL>
0

>  <SCORE.SYSTEM.SOLV>
0

>  <SCORE.SYSTEM.norm>
0

>  <SCORE.heavy>
42

>  <SCORE.norm>
0.853669

>  <RMSD>
12.593

$$$$
3c44_lig
 OpenBabel11021811463D
libRbt.so/2013.1/901 2013/11/27
 42 45  0  0  0  0  0  0  0  0999 V2000
   39.5708   43.0832   -6.9570 C   0  0  2  0  0  0  0  0  0  0  0  0
   38.7597   43.8800   -6.0801 O   0  0  0  0  0  0  0  0  0  0  0  0
   37.7128   47.6378   -7.4847 C   0  0  2  0  0  0  0  0  0  0  0  0
   37.1890   48.8694   -8.0952 N   0  0  0  0  0  0  0  0  0  0  0  0
   36.6867   43.8889   -4.4594 C   0  0  1  0  0  0  0  0  0  0  0  0
   37.0335   40.9925   -1.4262 C   0  0  1  0  0  0  0  0  0  0  0  0
   38.7364   41.9107   -7.4834 C   0  0  2  0  0  0  0  0  0  0  0  0
   37.4978   42.3902   -8.1133 N   0  0  0  0  0  0  0  0  0  0  0  0
   38.0989   46.6225   -8.5642 C   0  0  0  0  0  0  0  0  0  0  0  0
   35.6414   43.4332   -3.4403 C   0  0  2  0  0  0  0  0  0  0  0  0
   35.8839   44.0592   -2.1789 O   0  0  0  0  0  0  0  0  0  0  0  0
   37.2892   39.5161   -1.7464 C   0  0  2  0  0  0  0  0  0  0  0  0
   36.4449   39.1387   -2.8883 N   0  0  0  0  0  0  0  0  0  0  0  0
   38.3802   40.9328   -6.3609 C   0  0  1  0  0  0  0  0  0  0  0  0
   37.7424   39.7821   -6.9233 O   0  0  0  0  0  0  0  0  0  0  0  0
   38.7765   45.4371   -7.8687 C   0  0  2  0  0  0  0  0  0  0  0  0
   39.1076   44.4108   -8.8688 N   0  0  0  0  0  0  0  0  0  0  0  0
   36.0118   41.9551   -3.3356 C   0  0  2  0  0  0  0  0  0  0  0  0
   37.2395   41.7858   -2.6082 O   0  0  0  0  0  0  0  0  0  0  0  0
   36.9359   38.6210   -0.5514 C   0  0  1  0  0  0  0  0  0  0  0  0
   37.8861   38.7974    0.5026 O   0  0  0  0  0  0  0  0  0  0  0  0
   39.6500   40.5041   -5.6234 C   0  0  2  0  0  0  0  0  0  0  0  0
   39.3026   39.6787   -4.5085 O   0  0  0  0  0  0  0  0  0  0  0  0
   37.9047   44.8024   -6.7780 C   0  0  2  0  0  0  0  0  0  0  0  0
   36.2392   41.6219   -4.8017 C   0  0  2  0  0  0  0  0  0  0  0  0
   36.6928   42.8351   -5.4403 O   0  0  0  0  0  0  0  0  0  0  0  0
   35.5408   38.9458   -0.0149 C   0  0  2  0  0  0  0  0  0  0  0  0
   34.5690   38.5602   -0.9911 O   0  0  0  0  0  0  0  0  0  0  0  0
   40.4002   41.7434   -5.1328 C   0  0  2  0  0  0  0  0  0  0  0  0
   40.7253   42.6005   -6.2449 O   0  0  0  0  0  0  0  0  0  0  0  0
   37.2907   45.8051   -5.8032 C   0  0  2  0  0  0  0  0  0  0  0  0
   36.2801   45.1495   -5.0199 O   0  0  0  0  0  0  0  0  0  0  0  0
   34.9294   41.1307   -5.4220 C   0  0  0  0  0  0  0  0  0  0  0  0
   35.1744   40.7241   -6.7702 O   0  0  0  0  0  0  0  0  0  0  0  0
   35.4520   40.4486    0.2636 C   0  0  1  0  0  0  0  0  0  0  0  0
   35.6813   41.1537   -0.9691 O   0  0  0  0  0  0  0  0  0  0  0  0
   41.6830   41.2680   -4.4460 C   0  0  0  0  0  0  0  0  0  0  0  0
   41.3684   40.6999   -3.1272 O   0  0  0  0  0  0  0  0  0  0  0  0
   36.6817   46.9960   -6.5528 C   0  0  1  0  0  0  0  0  0  0  0  0
   36.1933   47.9628   -5.6203 O   0  0  0  0  0  0  0  0  0  0  0  0
   34.0886   40.8536    0.8253 C   0  0  0  0  0  0  0  0  0  0  0  0
   33.8617   40.1528    2.0969 N   0  0  0  0  0  0  0  0  0  0  0  0
  1  2  1  1  0  0  0
  1  7  1  0  0  0  0
  1 30  1  0  0  0  0
  3  4  1  6  0  0  0
  3  9  1  0  0  0  0
  3 39  1  0  0  0  0
  5 10  1  0  0  0  0
  5 26  1  0  0  0  0
  5 32  1  6  0  0  0
  6 12  1  0  0  0  0
  6 36  1  0  0  0  0
  6 19  1  6  0  0  0
  7  8  1  1  0  0  0
  7 14  1  0  0  0  0
  9 16  1  0  0  0  0
 10 11  1  1  0  0  0
 10 18  1  0  0  0  0
 12 13  1  6  0  0  0
 12 20  1  0  0  0  0
 14 15  1  6  0  0  0
 14 22  1  0  0  0  0
 16 17  1  6  0  0  0
 16 24  1  0  0  0  0
 18 19  1  1  0  0  0
 18 25  1  0  0  0  0
 20 21  1  1  0  0  0
 20 27  1  0  0  0  0
 22 23  1  1  0  0  0
 22 29  1  0  0  0  0
 24  2  1  1  0  0  0
 24 31  1  0  0  0  0
 25 26  1  0  0  0  0
 25 33  1  6  0  0  0
 27 28  1  6  0  0  0
 27 35  1  0  0  0  0
 29 30  1  0  0  0  0
 29 37  1  6  0  0  0
 31 32  1  6  0  0  0
 31 39  1  0  0  0  0
 33 34  1  0  0  0  0
 35 36  1  0  0  0  0
 35 41  1  6  0  0  0
 37 38  1  0  0  0  0
 39 40  1  1  0  0  0
 41 42  1  0  0  0  0
M  END
>  <CHROM.1>
-81.46492542,169.00040229,91.94859951,119.35745247,-44.21200589,-175.64566896
-74.81812909,47.78772973,60.79808190,37.33962258,42.37536168,-4.38298982
-1.26091747,-0.74571723,2.49107109

>  <Name>
3c44_lig

>  <RI>
0

>  <Rbt.Current_Directory>
/home/itssahil/PROJECTS/Mol_Feturizer/New_Systems/rnas/3c44

>  <Rbt.Executable>
rbdock ($Id: //depot/dev/client3/rdock/2013.1/src/exe/rbdock.cxx#4 $)

>  <Rbt.Library>
libRbt.so (2013.1, Build901 2013/11/27)

>  <Rbt.Parameter_File>
/export/apps/rDock/src/rDock_2013.1_src/data/scripts/dock_solv.prm

>  <Rbt.Receptor>
prm/blind_docking_80.prm

>  <SCORE>
12.7523

>  <SCORE.INTER>
-9.27856

>  <SCORE.INTER.CONST>
1

>  <SCORE.INTER.POLAR>
0

>  <SCORE.INTER.ROT>
9

>  <SCORE.INTER.SOLV>
16.1995

>  <SCORE.INTER.VDW>
-21.1855

>  <SCORE.INTER.norm>
-0.220918

>  <SCORE.INTRA>
18.6736

>  <SCORE.INTRA.DIHEDRAL>
1.45835

>  <SCORE.INTRA.DIHEDRAL.0>
14.8538

>  <SCORE.INTRA.POLAR>
0

>  <SCORE.INTRA.POLAR.0>
0

>  <SCORE.INTRA.REPUL>
0.0375484

>  <SCORE.INTRA.REPUL.0>
0

>  <SCORE.INTRA.SOLV>
8.44761

>  <SCORE.INTRA.SOLV.lig_0>
-100.951

>  <SCORE.INTRA.VDW>
13.5328

>  <SCORE.INTRA.VDW.0>
-5.71388

>  <SCORE.INTRA.norm>
0.444609

>  <SCORE.RESTR>
3.35731

>  <SCORE.RESTR.CAVITY>
3.35731

>  <SCORE.RESTR.norm>
0.079936

>  <SCORE.SYSTEM>
0

>  <SCORE.SYSTEM.CONST>
0

>  <SCORE.SYSTEM.DIHEDRAL>
0

>  <SCORE.SYSTEM.SOLV>
0

>  <SCORE.SYSTEM.norm>
0

>  <SCORE.heavy>
42

>  <SCORE.norm>
0.303626

>  <RMSD>
12.599

$$$$
3c44_lig
 OpenBabel11021811463D
libRbt.so/2013.1/901 2013/11/27
 42 45  0  0  0  0  0  0  0  0999 V2000
   39.5079   43.0250   -7.4967 C   0  0  2  0  0  0  0  0  0  0  0  0
   38.0776   42.9807   -7.3791 O   0  0  0  0  0  0  0  0  0  0  0  0
   38.1185   47.1110   -7.0205 C   0  0  2  0  0  0  0  0  0  0  0  0
   37.9342   48.5697   -6.9740 N   0  0  0  0  0  0  0  0  0  0  0  0
   36.9828   43.0624   -4.5042 C   0  0  1  0  0  0  0  0  0  0  0  0
   37.1235   40.6503   -1.1848 C   0  0  1  0  0  0  0  0  0  0  0  0
   40.0303   41.6147   -7.7900 C   0  0  2  0  0  0  0  0  0  0  0  0
   39.3675   41.0459   -8.9724 N   0  0  0  0  0  0  0  0  0  0  0  0
   37.8808   46.5819   -8.4378 C   0  0  0  0  0  0  0  0  0  0  0  0
   35.8610   42.4717   -3.6489 C   0  0  2  0  0  0  0  0  0  0  0  0
   35.7875   43.1583   -2.3980 O   0  0  0  0  0  0  0  0  0  0  0  0
   37.2825   39.1279   -1.1146 C   0  0  2  0  0  0  0  0  0  0  0  0
   36.5382   38.5342   -2.2338 N   0  0  0  0  0  0  0  0  0  0  0  0
   39.8119   40.6808   -6.5970 C   0  0  1  0  0  0  0  0  0  0  0  0
   40.4537   39.4284   -6.8554 O   0  0  0  0  0  0  0  0  0  0  0  0
   38.2401   45.0923   -8.4461 C   0  0  2  0  0  0  0  0  0  0  0  0
   37.9659   44.5332   -9.7784 N   0  0  0  0  0  0  0  0  0  0  0  0
   36.4286   41.0738   -3.4106 C   0  0  2  0  0  0  0  0  0  0  0  0
   37.5260   41.1185   -2.4839 O   0  0  0  0  0  0  0  0  0  0  0  0
   36.7238   38.5729    0.2022 C   0  0  1  0  0  0  0  0  0  0  0  0
   37.5650   38.9445    1.2973 O   0  0  0  0  0  0  0  0  0  0  0  0
   40.4031   41.3069   -5.3326 C   0  0  2  0  0  0  0  0  0  0  0  0
   40.1008   40.4842   -4.2026 O   0  0  0  0  0  0  0  0  0  0  0  0
   37.4647   44.2818   -7.3999 C   0  0  2  0  0  0  0  0  0  0  0  0
   36.9498   40.7457   -4.8008 C   0  0  2  0  0  0  0  0  0  0  0  0
   37.3157   41.9996   -5.4165 O   0  0  0  0  0  0  0  0  0  0  0  0
   35.3123   39.0998    0.4658 C   0  0  2  0  0  0  0  0  0  0  0  0
   34.4229   38.5460   -0.5080 O   0  0  0  0  0  0  0  0  0  0  0  0
   39.8109   42.7020   -5.1271 C   0  0  2  0  0  0  0  0  0  0  0  0
   40.0796   43.5303   -6.2756 O   0  0  0  0  0  0  0  0  0  0  0  0
   37.4673   44.8968   -6.0019 C   0  0  2  0  0  0  0  0  0  0  0  0
   36.4906   44.2289   -5.1866 O   0  0  0  0  0  0  0  0  0  0  0  0
   35.8547   40.0385   -5.6022 C   0  0  0  0  0  0  0  0  0  0  0  0
   34.7946   40.9617   -5.8606 O   0  0  0  0  0  0  0  0  0  0  0  0
   35.3254   40.6278    0.3704 C   0  0  1  0  0  0  0  0  0  0  0  0
   35.7487   40.9970   -0.9539 O   0  0  0  0  0  0  0  0  0  0  0  0
   40.4658   43.3055   -3.8820 C   0  0  0  0  0  0  0  0  0  0  0  0
   40.1182   44.7294   -3.7691 O   0  0  0  0  0  0  0  0  0  0  0  0
   37.1606   46.3978   -6.0627 C   0  0  1  0  0  0  0  0  0  0  0  0
   37.2559   46.9697   -4.7563 O   0  0  0  0  0  0  0  0  0  0  0  0
   33.9495   41.2367    0.6436 C   0  0  0  0  0  0  0  0  0  0  0  0
   33.9193   42.6134    0.1306 N   0  0  0  0  0  0  0  0  0  0  0  0
  1  2  1  1  0  0  0
  1  7  1  0  0  0  0
  1 30  1  0  0  0  0
  3  4  1  6  0  0  0
  3  9  1  0  0  0  0
  3 39  1  0  0  0  0
  5 10  1  0  0  0  0
  5 26  1  0  0  0  0
  5 32  1  6  0  0  0
  6 12  1  0  0  0  0
  6 36  1  0  0  0  0
  6 19  1  6  0  0  0
  7  8  1  6  0  0  0
  7 14  1  0  0  0  0
  9 16  1  0  0  0  0
 10 11  1  1  0  0  0
 10 18  1  0  0  0  0
 12 13  1  6  0  0  0
 12 20  1  0  0  0  0
 14 15  1  6  0  0  0
 14 22  1  0  0  0  0
 16 17  1  6  0  0  0
 16 24  1  0  0  0  0
 18 19  1  1  0  0  0
 18 25  1  0  0  0  0
 20 21  1  1  0  0  0
 20 27  1  0  0  0  0
 22 23  1  1  0  0  0
 22 29  1  0  0  0  0
 24  2  1  1  0  0  0
 24 31  1  0  0  0  0
 25 26  1  0  0  0  0
 25 33  1  6  0  0  0
 27 28  1  6  0  0  0
 27 35  1  0  0  0  0
 29 30  1  0  0  0  0
 29 37  1  1  0  0  0
 31 32  1  1  0  0  0
 31 39  1  0  0  0  0
 33 34  1  0  0  0  0
 35 36  1  0  0  0  0
 35 41  1  6  0  0  0
 37 38  1  0  0  0  0
 39 40  1  1  0  0  0
 41 42  1  0  0  0  0
M  END
>  <CHROM.1>
-167.00010282,178.54229968,87.22537624,103.74434077,39.34857508,67.75480007
169.95763402,88.09274772,-162.16158033,37.51107746,42.29942355,-4.37392253
-1.04522384,-0.91176580,2.61090513

>  <Name>
3c44_lig

>  <RI>
0

>  <Rbt.Current_Directory>
/home/itssahil/PROJECTS/Mol_Feturizer/New_Systems/rnas/3c44

>  <Rbt.Executable>
rbdock ($Id: //depot/dev/client3/rdock/2013.1/src/exe/rbdock.cxx#4 $)

>  <Rbt.Library>
libRbt.so (2013.1, Build901 2013/11/27)

>  <Rbt.Parameter_File>
/export/apps/rDock/src/rDock_2013.1_src/data/scripts/dock_solv.prm

>  <Rbt.Receptor>
prm/blind_docking_100.prm

>  <SCORE>
5.21814

>  <SCORE.INTER>
-8.03658

>  <SCORE.INTER.CONST>
1

>  <SCORE.INTER.POLAR>
-0.275616

>  <SCORE.INTER.ROT>
9

>  <SCORE.INTER.SOLV>
20.7154

>  <SCORE.INTER.VDW>
-20.9441

>  <SCORE.INTER.norm>
-0.191347

>  <SCORE.INTRA>
9.01942

>  <SCORE.INTRA.DIHEDRAL>
1.72532

>  <SCORE.INTRA.DIHEDRAL.0>
14.8538

>  <SCORE.INTRA.POLAR>
0

>  <SCORE.INTRA.POLAR.0>
0

>  <SCORE.INTRA.REPUL>
0.236694

>  <SCORE.INTRA.REPUL.0>
0

>  <SCORE.INTRA.SOLV>
2.72924

>  <SCORE.INTRA.SOLV.lig_0>
-100.951

>  <SCORE.INTRA.VDW>
5.60867

>  <SCORE.INTRA.VDW.0>
-5.71388

>  <SCORE.INTRA.norm>
0.214748

>  <SCORE.RESTR>
4.2353

>  <SCORE.RESTR.CAVITY>
4.2353

>  <SCORE.RESTR.norm>
0.10084

>  <SCORE.SYSTEM>
0

>  <SCORE.SYSTEM.CONST>
0

>  <SCORE.SYSTEM.DIHEDRAL>
0

>  <SCORE.SYSTEM.SOLV>
0

>  <SCORE.SYSTEM.norm>
0

>  <SCORE.heavy>
42

>  <SCORE.norm>
0.124241

>  <RMSD>
12.609

$$$$
3c44_lig
 OpenBabel11021811463D
libRbt.so/2013.1/901 2013/11/27
 42 45  0  0  0  0  0  0  0  0999 V2000
   35.0524   42.8731   -1.8187 C   0  0  2  0  0  0  0  0  0  0  0  0
   36.0410   43.6364   -1.1103 O   0  0  0  0  0  0  0  0  0  0  0  0
   34.3310   47.0538   -2.7188 C   0  0  2  0  0  0  0  0  0  0  0  0
   33.8868   48.3720   -3.1972 N   0  0  0  0  0  0  0  0  0  0  0  0
   37.3731   43.8723   -4.4686 C   0  0  1  0  0  0  0  0  0  0  0  0
   37.4780   41.3188   -7.7285 C   0  0  1  0  0  0  0  0  0  0  0  0
   34.0646   42.2753   -0.8113 C   0  0  2  0  0  0  0  0  0  0  0  0
   33.4873   43.3241    0.0419 N   0  0  0  0  0  0  0  0  0  0  0  0
   34.4819   47.0555   -1.1948 C   0  0  0  0  0  0  0  0  0  0  0  0
   38.0630   44.4064   -5.7247 C   0  0  2  0  0  0  0  0  0  0  0  0
   37.1307   45.1435   -6.5179 O   0  0  0  0  0  0  0  0  0  0  0  0
   36.1752   40.6289   -8.1461 C   0  0  2  0  0  0  0  0  0  0  0  0
   35.3742   40.3857   -6.9384 N   0  0  0  0  0  0  0  0  0  0  0  0
   34.7399   41.2257    0.0749 C   0  0  1  0  0  0  0  0  0  0  0  0
   33.7497   40.5860    0.8858 O   0  0  0  0  0  0  0  0  0  0  0  0
   34.7921   45.6208   -0.7551 C   0  0  2  0  0  0  0  0  0  0  0  0
   35.0049   45.5932    0.6999 N   0  0  0  0  0  0  0  0  0  0  0  0
   38.3729   43.0867   -6.4285 C   0  0  2  0  0  0  0  0  0  0  0  0
   37.1760   42.5000   -6.9653 O   0  0  0  0  0  0  0  0  0  0  0  0
   36.4553   39.2863   -8.8339 C   0  0  1  0  0  0  0  0  0  0  0  0
   37.0300   39.4978  -10.1261 O   0  0  0  0  0  0  0  0  0  0  0  0
   35.4385   40.1813   -0.7978 C   0  0  2  0  0  0  0  0  0  0  0  0
   36.1592   39.2664    0.0319 O   0  0  0  0  0  0  0  0  0  0  0  0
   36.0288   45.0346   -1.4475 C   0  0  2  0  0  0  0  0  0  0  0  0
   38.8645   42.2552   -5.2542 C   0  0  2  0  0  0  0  0  0  0  0  0
   38.1883   42.7517   -4.0787 O   0  0  0  0  0  0  0  0  0  0  0  0
   37.4147   38.4327   -8.0029 C   0  0  2  0  0  0  0  0  0  0  0  0
   36.7537   38.0340   -6.7987 O   0  0  0  0  0  0  0  0  0  0  0  0
   36.4052   40.8788   -1.7560 C   0  0  2  0  0  0  0  0  0  0  0  0
   35.6950   41.8294   -2.5742 O   0  0  0  0  0  0  0  0  0  0  0  0
   36.0456   45.2195   -2.9635 C   0  0  2  0  0  0  0  0  0  0  0  0
   37.3540   44.9041   -3.4667 O   0  0  0  0  0  0  0  0  0  0  0  0
   40.3813   42.4071   -5.1213 C   0  0  0  0  0  0  0  0  0  0  0  0
   40.8369   41.6090   -4.0266 O   0  0  0  0  0  0  0  0  0  0  0  0
   38.6629   39.2582   -7.6797 C   0  0  1  0  0  0  0  0  0  0  0  0
   38.2597   40.4171   -6.9289 O   0  0  0  0  0  0  0  0  0  0  0  0
   37.0422   39.8021   -2.6382 C   0  0  0  0  0  0  0  0  0  0  0  0
   38.2090   40.3525   -3.3429 O   0  0  0  0  0  0  0  0  0  0  0  0
   35.6703   46.6565   -3.3447 C   0  0  1  0  0  0  0  0  0  0  0  0
   35.6051   46.7839   -4.7668 O   0  0  0  0  0  0  0  0  0  0  0  0
   39.6861   38.4657   -6.8652 C   0  0  0  0  0  0  0  0  0  0  0  0
   39.0189   37.8681   -5.7002 N   0  0  0  0  0  0  0  0  0  0  0  0
  1  2  1  1  0  0  0
  1  7  1  0  0  0  0
  1 30  1  0  0  0  0
  3  4  1  6  0  0  0
  3  9  1  0  0  0  0
  3 39  1  0  0  0  0
  5 10  1  0  0  0  0
  5 26  1  0  0  0  0
  5 32  1  1  0  0  0
  6 12  1  0  0  0  0
  6 36  1  0  0  0  0
  6 19  1  1  0  0  0
  7  8  1  1  0  0  0
  7 14  1  0  0  0  0
  9 16  1  0  0  0  0
 10 11  1  6  0  0  0
 10 18  1  0  0  0  0
 12 13  1  1  0  0  0
 12 20  1  0  0  0  0
 14 15  1  6  0  0  0
 14 22  1  0  0  0  0
 16 17  1  1  0  0  0
 16 24  1  0  0  0  0
 18 19  1  1  0  0  0
 18 25  1  0  0  0  0
 20 21  1  6  0  0  0
 20 27  1  0  0  0  0
 22 23  1  1  0  0  0
 22 29  1  0  0  0  0
 24  2  1  6  0  0  0
 24 31  1  0  0  0  0
 25 26  1  0  0  0  0
 25 33  1  1  0  0  0
 27 28  1  1  0  0  0
 27 35  1  0  0  0  0
 29 30  1  0  0  0  0
 29 37  1  6  0  0  0
 31 32  1  1  0  0  0
 31 39  1  0  0  0  0
 33 34  1  0  0  0  0
 35 36  1  0  0  0  0
 35 41  1  1  0  0  0
 37 38  1  0  0  0  0
 39 40  1  6  0  0  0
 41 42  1  0  0  0  0
M  END
>  <CHROM.1>
-117.33874515,124.42392671,173.39439577,174.95741068,74.44731818,-179.25277043
-166.06803378,122.99389920,-51.28388623,36.64433020,42.35716810,-4.03889498
2.85524796,1.18486749,-0.38413061

>  <Name>
3c44_lig

>  <RI>
224

>  <Rbt.Current_Directory>
/home/itssahil/PROJECTS/Mol_Feturizer/New_Systems/rnas/3c44

>  <Rbt.Executable>
rbdock ($Id: //depot/dev/client3/rdock/2013.1/src/exe/rbdock.cxx#4 $)

>  <Rbt.Library>
libRbt.so (2013.1, Build901 2013/11/27)

>  <Rbt.Parameter_File>
/export/apps/rDock/src/rDock_2013.1_src/data/scripts/dock_solv.prm

>  <Rbt.Receptor>
prm/blind_docking_60.prm

>  <SCORE>
19.8719

>  <SCORE.INTER>
2.91036

>  <SCORE.INTER.CONST>
1

>  <SCORE.INTER.POLAR>
-0.49977

>  <SCORE.INTER.ROT>
9

>  <SCORE.INTER.SOLV>
20.8847

>  <SCORE.INTER.VDW>
-12.9554

>  <SCORE.INTER.norm>
0.0692943

>  <SCORE.INTRA>
9.87817

>  <SCORE.INTRA.DIHEDRAL>
9.08349

>  <SCORE.INTRA.DIHEDRAL.0>
14.8538

>  <SCORE.INTRA.POLAR>
0

>  <SCORE.INTRA.POLAR.0>
0

>  <SCORE.INTRA.REPUL>
0

>  <SCORE.INTRA.REPUL.0>
0

>  <SCORE.INTRA.SOLV>
3.94108

>  <SCORE.INTRA.SOLV.lig_0>
-100.951

>  <SCORE.INTRA.VDW>
3.36589

>  <SCORE.INTRA.VDW.0>
-5.71388

>  <SCORE.INTRA.norm>
0.235195

>  <SCORE.RESTR>
7.08339

>  <SCORE.RESTR.CAVITY>
7.08339

>  <SCORE.RESTR.norm>
0.168652

>  <SCORE.SYSTEM>
0

>  <SCORE.SYSTEM.CONST>
0

>  <SCORE.SYSTEM.DIHEDRAL>
0

>  <SCORE.SYSTEM.SOLV>
0

>  <SCORE.SYSTEM.norm>
0

>  <SCORE.heavy>
42

>  <SCORE.norm>
0.473141

>  <RMSD>
12.632

$$$$
3c44_lig
 OpenBabel11021811463D
libRbt.so/2013.1/901 2013/11/27
 42 45  0  0  0  0  0  0  0  0999 V2000
   34.9592   41.1994    0.2089 C   0  0  2  0  0  0  0  0  0  0  0  0
   34.5185   39.9929   -0.4330 O   0  0  0  0  0  0  0  0  0  0  0  0
   38.3238   38.4671    0.1840 C   0  0  2  0  0  0  0  0  0  0  0  0
   39.5811   37.7325    0.3925 N   0  0  0  0  0  0  0  0  0  0  0  0
   36.5850   39.3687   -3.8766 C   0  0  1  0  0  0  0  0  0  0  0  0
   38.3218   40.8302   -7.2277 C   0  0  1  0  0  0  0  0  0  0  0  0
   33.7413   41.9443    0.7655 C   0  0  2  0  0  0  0  0  0  0  0  0
   32.9516   41.0722    1.6469 N   0  0  0  0  0  0  0  0  0  0  0  0
   37.2801   38.0574    1.2270 C   0  0  0  0  0  0  0  0  0  0  0  0
   35.9824   38.7965   -5.1605 C   0  0  2  0  0  0  0  0  0  0  0  0
   36.6121   37.5555   -5.4846 O   0  0  0  0  0  0  0  0  0  0  0  0
   39.7781   40.5792   -7.6329 C   0  0  2  0  0  0  0  0  0  0  0  0
   40.5650   40.3571   -6.4120 N   0  0  0  0  0  0  0  0  0  0  0  0
   32.8429   42.4620   -0.3606 C   0  0  1  0  0  0  0  0  0  0  0  0
   31.8117   43.2814    0.1983 O   0  0  0  0  0  0  0  0  0  0  0  0
   36.0602   38.9673    1.0486 C   0  0  2  0  0  0  0  0  0  0  0  0
   35.0093   38.5631    1.9948 N   0  0  0  0  0  0  0  0  0  0  0  0
   36.4445   39.8580   -6.1567 C   0  0  2  0  0  0  0  0  0  0  0  0
   37.8552   39.7453   -6.4065 O   0  0  0  0  0  0  0  0  0  0  0  0
   40.3591   41.7838   -8.3849 C   0  0  1  0  0  0  0  0  0  0  0  0
   39.7722   41.8914   -9.6844 O   0  0  0  0  0  0  0  0  0  0  0  0
   33.6713   43.2857   -1.3484 C   0  0  2  0  0  0  0  0  0  0  0  0
   32.8527   43.6744   -2.4546 O   0  0  0  0  0  0  0  0  0  0  0  0
   35.4866   38.9308   -0.3734 C   0  0  2  0  0  0  0  0  0  0  0  0
   36.1685   41.1239   -5.3607 C   0  0  2  0  0  0  0  0  0  0  0  0
   36.3079   40.7786   -3.9654 O   0  0  0  0  0  0  0  0  0  0  0  0
   40.1035   43.0841   -7.6210 C   0  0  2  0  0  0  0  0  0  0  0  0
   40.8716   43.0699   -6.4144 O   0  0  0  0  0  0  0  0  0  0  0  0
   34.8506   42.4503   -1.8488 C   0  0  2  0  0  0  0  0  0  0  0  0
   35.6641   42.0232   -0.7384 O   0  0  0  0  0  0  0  0  0  0  0  0
   36.5310   39.0965   -1.4754 C   0  0  2  0  0  0  0  0  0  0  0  0
   35.9430   38.7600   -2.7426 O   0  0  0  0  0  0  0  0  0  0  0  0
   34.7533   41.6196   -5.6657 C   0  0  0  0  0  0  0  0  0  0  0  0
   34.6481   41.9025   -7.0627 O   0  0  0  0  0  0  0  0  0  0  0  0
   38.6096   43.1890   -7.3026 C   0  0  1  0  0  0  0  0  0  0  0  0
   38.2373   42.0608   -6.4915 O   0  0  0  0  0  0  0  0  0  0  0  0
   35.6744   43.3292   -2.7935 C   0  0  0  0  0  0  0  0  0  0  0  0
   36.1612   44.5186   -2.0799 O   0  0  0  0  0  0  0  0  0  0  0  0
   37.7519   38.2072   -1.2119 C   0  0  1  0  0  0  0  0  0  0  0  0
   38.7525   38.4436   -2.2048 O   0  0  0  0  0  0  0  0  0  0  0  0
   38.2662   44.4778   -6.5546 C   0  0  0  0  0  0  0  0  0  0  0  0
   38.5663   44.3029   -5.1266 N   0  0  0  0  0  0  0  0  0  0  0  0
  1  2  1  6  0  0  0
  1  7  1  0  0  0  0
  1 30  1  0  0  0  0
  3  4  1  1  0  0  0
  3  9  1  0  0  0  0
  3 39  1  0  0  0  0
  5 10  1  0  0  0  0
  5 26  1  0  0  0  0
  5 32  1  1  0  0  0
  6 12  1  0  0  0  0
  6 36  1  0  0  0  0
  6 19  1  1  0  0  0
  7  8  1  1  0  0  0
  7 14  1  0  0  0  0
  9 16  1  0  0  0  0
 10 11  1  6  0  0  0
 10 18  1  0  0  0  0
 12 13  1  1  0  0  0
 12 20  1  0  0  0  0
 14 15  1  1  0  0  0
 14 22  1  0  0  0  0
 16 17  1  1  0  0  0
 16 24  1  0  0  0  0
 18 19  1  1  0  0  0
 18 25  1  0  0  0  0
 20 21  1  6  0  0  0
 20 27  1  0  0  0  0
 22 23  1  6  0  0  0
 22 29  1  0  0  0  0
 24  2  1  1  0  0  0
 24 31  1  0  0  0  0
 25 26  1  0  0  0  0
 25 33  1  1  0  0  0
 27 28  1  1  0  0  0
 27 35  1  0  0  0  0
 29 30  1  0  0  0  0
 29 37  1  6  0  0  0
 31 32  1  6  0  0  0
 31 39  1  0  0  0  0
 33 34  1  0  0  0  0
 35 36  1  0  0  0  0
 35 41  1  1  0  0  0
 37 38  1  0  0  0  0
 39 40  1  6  0  0  0
 41 42  1  0  0  0  0
M  END
>  <CHROM.1>
-149.72590560,172.93744891,-172.29528695,-173.68784827,41.98442771,-60.22361646
59.85580066,155.71875454,-81.45126106,36.63758360,40.99400293,-3.37384292
2.28998903,-0.75039053,2.27057066

>  <Name>
3c44_lig

>  <RI>
224

>  <Rbt.Current_Directory>
/home/itssahil/PROJECTS/Mol_Feturizer/New_Systems/rnas/3c44

>  <Rbt.Executable>
rbdock ($Id: //depot/dev/client3/rdock/2013.1/src/exe/rbdock.cxx#4 $)

>  <Rbt.Library>
libRbt.so (2013.1, Build901 2013/11/27)

>  <Rbt.Parameter_File>
/export/apps/rDock/src/rDock_2013.1_src/data/scripts/dock_solv.prm

>  <Rbt.Receptor>
prm/blind_docking_60.prm

>  <SCORE>
4.83063

>  <SCORE.INTER>
-10.8914

>  <SCORE.INTER.CONST>
1

>  <SCORE.INTER.POLAR>
-1.65684

>  <SCORE.INTER.ROT>
9

>  <SCORE.INTER.SOLV>
18.5424

>  <SCORE.INTER.VDW>
-17.5189

>  <SCORE.INTER.norm>
-0.259319

>  <SCORE.INTRA>
3.44215

>  <SCORE.INTRA.DIHEDRAL>
-4.50377

>  <SCORE.INTRA.DIHEDRAL.0>
14.8538

>  <SCORE.INTRA.POLAR>
0

>  <SCORE.INTRA.POLAR.0>
0

>  <SCORE.INTRA.REPUL>
0

>  <SCORE.INTRA.REPUL.0>
0

>  <SCORE.INTRA.SOLV>
1.04386

>  <SCORE.INTRA.SOLV.lig_0>
-100.951

>  <SCORE.INTRA.VDW>
5.17211

>  <SCORE.INTRA.VDW.0>
-5.71388

>  <SCORE.INTRA.norm>
0.0819559

>  <SCORE.RESTR>
12.2799

>  <SCORE.RESTR.CAVITY>
12.2799

>  <SCORE.RESTR.norm>
0.292378

>  <SCORE.SYSTEM>
0

>  <SCORE.SYSTEM.CONST>
0

>  <SCORE.SYSTEM.DIHEDRAL>
0

>  <SCORE.SYSTEM.SOLV>
0

>  <SCORE.SYSTEM.norm>
0

>  <SCORE.heavy>
42

>  <SCORE.norm>
0.115015

>  <RMSD>
12.657

$$$$
3c44_lig
 OpenBabel11021811463D
libRbt.so/2013.1/901 2013/11/27
 42 45  0  0  0  0  0  0  0  0999 V2000
   35.7463   44.7533   -2.1601 C   0  0  2  0  0  0  0  0  0  0  0  0
   35.7784   44.1874   -3.4794 O   0  0  0  0  0  0  0  0  0  0  0  0
   38.1418   44.4208   -6.8778 C   0  0  2  0  0  0  0  0  0  0  0  0
   39.1259   44.5974   -7.9568 N   0  0  0  0  0  0  0  0  0  0  0  0
   37.8448   40.9156   -3.8982 C   0  0  1  0  0  0  0  0  0  0  0  0
   37.7416   38.9428   -5.3358 C   0  0  1  0  0  0  0  0  0  0  0  0
   35.8950   43.6294   -1.1292 C   0  0  2  0  0  0  0  0  0  0  0  0
   37.1035   42.8346   -1.3913 N   0  0  0  0  0  0  0  0  0  0  0  0
   37.8291   45.7618   -6.2077 C   0  0  0  0  0  0  0  0  0  0  0  0
   38.8258   40.1279   -3.0285 C   0  0  2  0  0  0  0  0  0  0  0  0
   40.0730   39.9806   -3.7101 O   0  0  0  0  0  0  0  0  0  0  0  0
   36.2139   38.8439   -5.4011 C   0  0  2  0  0  0  0  0  0  0  0  0
   35.8478   37.4255   -5.5164 N   0  0  0  0  0  0  0  0  0  0  0  0
   34.6764   42.7030   -1.1360 C   0  0  1  0  0  0  0  0  0  0  0  0
   34.7875   41.7705   -0.0565 O   0  0  0  0  0  0  0  0  0  0  0  0
   36.6912   45.5298   -5.2081 C   0  0  2  0  0  0  0  0  0  0  0  0
   36.4034   46.7854   -4.4986 N   0  0  0  0  0  0  0  0  0  0  0  0
   38.1168   38.7754   -3.0017 C   0  0  2  0  0  0  0  0  0  0  0  0
   38.2343   38.1111   -4.2706 O   0  0  0  0  0  0  0  0  0  0  0  0
   35.6616   39.5990   -6.6172 C   0  0  1  0  0  0  0  0  0  0  0  0
   35.7948   41.0105   -6.4311 O   0  0  0  0  0  0  0  0  0  0  0  0
   33.3976   43.5262   -0.9709 C   0  0  2  0  0  0  0  0  0  0  0  0
   32.2574   42.6711   -1.0879 O   0  0  0  0  0  0  0  0  0  0  0  0
   37.0107   44.4404   -4.1768 C   0  0  2  0  0  0  0  0  0  0  0  0
   36.6781   39.2208   -2.7922 C   0  0  2  0  0  0  0  0  0  0  0  0
   36.5524   40.5257   -3.3979 O   0  0  0  0  0  0  0  0  0  0  0  0
   36.4020   39.1997   -7.8947 C   0  0  2  0  0  0  0  0  0  0  0  0
   36.0887   37.8387   -8.2043 O   0  0  0  0  0  0  0  0  0  0  0  0
   33.3426   44.6086   -2.0500 C   0  0  2  0  0  0  0  0  0  0  0  0
   34.5051   45.4562   -1.9638 O   0  0  0  0  0  0  0  0  0  0  0  0
   37.5598   43.1485   -4.7786 C   0  0  2  0  0  0  0  0  0  0  0  0
   38.0902   42.3226   -3.7291 O   0  0  0  0  0  0  0  0  0  0  0  0
   36.3755   39.2790   -1.2933 C   0  0  0  0  0  0  0  0  0  0  0  0
   37.0422   40.4086   -0.7254 O   0  0  0  0  0  0  0  0  0  0  0  0
   37.9074   39.3640   -7.6697 C   0  0  1  0  0  0  0  0  0  0  0  0
   38.3012   38.5058   -6.5845 O   0  0  0  0  0  0  0  0  0  0  0  0
   32.0748   45.4339   -1.8155 C   0  0  0  0  0  0  0  0  0  0  0  0
   31.9858   46.5149   -2.8077 O   0  0  0  0  0  0  0  0  0  0  0  0
   38.6517   43.4464   -5.8130 C   0  0  1  0  0  0  0  0  0  0  0  0
   39.0880   42.2317   -6.4270 O   0  0  0  0  0  0  0  0  0  0  0  0
   38.7213   39.0035   -8.9131 C   0  0  0  0  0  0  0  0  0  0  0  0
   40.1500   39.1975   -8.6291 N   0  0  0  0  0  0  0  0  0  0  0  0
  1  2  1  6  0  0  0
  1  7  1  0  0  0  0
  1 30  1  0  0  0  0
  3  4  1  6  0  0  0
  3  9  1  0  0  0  0
  3 39  1  0  0  0  0
  5 10  1  0  0  0  0
  5 26  1  0  0  0  0
  5 32  1  1  0  0  0
  6 12  1  0  0  0  0
  6 36  1  0  0  0  0
  6 19  1  1  0  0  0
  7  8  1  6  0  0  0
  7 14  1  0  0  0  0
  9 16  1  0  0  0  0
 10 11  1  6  0  0  0
 10 18  1  0  0  0  0
 12 13  1  6  0  0  0
 12 20  1  0  0  0  0
 14 15  1  1  0  0  0
 14 22  1  0  0  0  0
 16 17  1  1  0  0  0
 16 24  1  0  0  0  0
 18 19  1  6  0  0  0
 18 25  1  0  0  0  0
 20 21  1  1  0  0  0
 20 27  1  0  0  0  0
 22 23  1  6  0  0  0
 22 29  1  0  0  0  0
 24  2  1  6  0  0  0
 24 31  1  0  0  0  0
 25 26  1  0  0  0  0
 25 33  1  1  0  0  0
 27 28  1  1  0  0  0
 27 35  1  0  0  0  0
 29 30  1  0  0  0  0
 29 37  1  1  0  0  0
 31 32  1  1  0  0  0
 31 39  1  0  0  0  0
 33 34  1  0  0  0  0
 35 36  1  0  0  0  0
 35 41  1  6  0  0  0
 37 38  1  0  0  0  0
 39 40  1  6  0  0  0
 41 42  1  0  0  0  0
M  END
>  <CHROM.1>
-106.24808496,160.83797511,-81.20485363,-55.54195985,-104.78134248,72.76596537
178.61245721,141.84504304,179.41441295,36.62089644,41.82018932,-4.24186708
-2.66213808,-1.01072394,2.84073499

>  <Name>
3c44_lig

>  <RI>
224

>  <Rbt.Current_Directory>
/home/itssahil/PROJECTS/Mol_Feturizer/New_Systems/rnas/3c44

>  <Rbt.Executable>
rbdock ($Id: //depot/dev/client3/rdock/2013.1/src/exe/rbdock.cxx#4 $)

>  <Rbt.Library>
libRbt.so (2013.1, Build901 2013/11/27)

>  <Rbt.Parameter_File>
/export/apps/rDock/src/rDock_2013.1_src/data/scripts/dock_solv.prm

>  <Rbt.Receptor>
prm/blind_docking_60.prm

>  <SCORE>
10.9598

>  <SCORE.INTER>
-16.8177

>  <SCORE.INTER.CONST>
1

>  <SCORE.INTER.POLAR>
-2.00701

>  <SCORE.INTER.ROT>
9

>  <SCORE.INTER.SOLV>
25.9588

>  <SCORE.INTER.VDW>
-22.7747

>  <SCORE.INTER.norm>
-0.400421

>  <SCORE.INTRA>
20.0099

>  <SCORE.INTRA.DIHEDRAL>
7.31795

>  <SCORE.INTRA.DIHEDRAL.0>
14.8538

>  <SCORE.INTRA.POLAR>
0

>  <SCORE.INTRA.POLAR.0>
0

>  <SCORE.INTRA.REPUL>
0.0585815

>  <SCORE.INTRA.REPUL.0>
0

>  <SCORE.INTRA.SOLV>
5.80467

>  <SCORE.INTRA.SOLV.lig_0>
-100.951

>  <SCORE.INTRA.VDW>
13.1557

>  <SCORE.INTRA.VDW.0>
-5.71388

>  <SCORE.INTRA.norm>
0.476426

>  <SCORE.RESTR>
7.76765

>  <SCORE.RESTR.CAVITY>
7.76765

>  <SCORE.RESTR.norm>
0.184944

>  <SCORE.SYSTEM>
0

>  <SCORE.SYSTEM.CONST>
0

>  <SCORE.SYSTEM.DIHEDRAL>
0

>  <SCORE.SYSTEM.SOLV>
0

>  <SCORE.SYSTEM.norm>
0

>  <SCORE.heavy>
42

>  <SCORE.norm>
0.260949

>  <RMSD>
12.696

$$$$
3c44_lig
 OpenBabel11021811463D
libRbt.so/2013.1/901 2013/11/27
 42 45  0  0  0  0  0  0  0  0999 V2000
   36.5147   40.0761   -6.7191 C   0  0  2  0  0  0  0  0  0  0  0  0
   36.3953   41.3621   -6.0916 O   0  0  0  0  0  0  0  0  0  0  0  0
   39.9857   42.4304   -7.8686 C   0  0  2  0  0  0  0  0  0  0  0  0
   41.1840   43.0103   -8.4944 N   0  0  0  0  0  0  0  0  0  0  0  0
   37.3649   42.1363   -3.6955 C   0  0  1  0  0  0  0  0  0  0  0  0
   35.7677   40.3362   -0.3149 C   0  0  1  0  0  0  0  0  0  0  0  0
   35.5324   39.1032   -6.0583 C   0  0  2  0  0  0  0  0  0  0  0  0
   34.1640   39.6395   -6.0881 N   0  0  0  0  0  0  0  0  0  0  0  0
   38.7296   42.7995   -8.6631 C   0  0  0  0  0  0  0  0  0  0  0  0
   37.4746   42.5286   -2.2213 C   0  0  2  0  0  0  0  0  0  0  0  0
   38.3944   41.6632   -1.5530 O   0  0  0  0  0  0  0  0  0  0  0  0
   35.9769   38.8203   -0.2386 C   0  0  2  0  0  0  0  0  0  0  0  0
   35.0250   38.1764   -1.1543 N   0  0  0  0  0  0  0  0  0  0  0  0
   35.9250   38.8157   -4.6070 C   0  0  1  0  0  0  0  0  0  0  0  0
   35.0778   37.7878   -4.0845 O   0  0  0  0  0  0  0  0  0  0  0  0
   37.5492   42.0391   -8.0496 C   0  0  2  0  0  0  0  0  0  0  0  0
   36.3115   42.4160   -8.7489 N   0  0  0  0  0  0  0  0  0  0  0  0
   36.0580   42.1922   -1.7598 C   0  0  2  0  0  0  0  0  0  0  0  0
   35.8695   40.7696   -1.6827 O   0  0  0  0  0  0  0  0  0  0  0  0
   35.7287   38.2978    1.1825 C   0  0  1  0  0  0  0  0  0  0  0  0
   36.7757   38.7207    2.0598 O   0  0  0  0  0  0  0  0  0  0  0  0
   37.3831   38.3571   -4.5448 C   0  0  2  0  0  0  0  0  0  0  0  0
   37.7781   38.1957   -3.1799 O   0  0  0  0  0  0  0  0  0  0  0  0
   37.3734   42.3116   -6.5505 C   0  0  2  0  0  0  0  0  0  0  0  0
   35.2487   42.7503   -2.9199 C   0  0  2  0  0  0  0  0  0  0  0  0
   36.0828   42.6555   -4.0949 O   0  0  0  0  0  0  0  0  0  0  0  0
   34.3937   38.8060    1.7295 C   0  0  2  0  0  0  0  0  0  0  0  0
   33.3303   38.2040    0.9860 O   0  0  0  0  0  0  0  0  0  0  0  0
   38.2766   39.3988   -5.2198 C   0  0  2  0  0  0  0  0  0  0  0  0
   37.8655   39.5954   -6.5871 O   0  0  0  0  0  0  0  0  0  0  0  0
   38.6596   42.1908   -5.7359 C   0  0  2  0  0  0  0  0  0  0  0  0
   38.4464   42.7410   -4.4257 O   0  0  0  0  0  0  0  0  0  0  0  0
   34.8744   44.2048   -2.6272 C   0  0  0  0  0  0  0  0  0  0  0  0
   36.0633   44.9979   -2.6044 O   0  0  0  0  0  0  0  0  0  0  0  0
   34.3469   40.3300    1.5913 C   0  0  1  0  0  0  0  0  0  0  0  0
   34.4662   40.6640    0.1972 O   0  0  0  0  0  0  0  0  0  0  0  0
   39.7146   38.8754   -5.1759 C   0  0  0  0  0  0  0  0  0  0  0  0
   40.4115   39.4134   -3.9986 O   0  0  0  0  0  0  0  0  0  0  0  0
   39.8174   42.9199   -6.4280 C   0  0  1  0  0  0  0  0  0  0  0  0
   41.0287   42.7194   -5.6962 O   0  0  0  0  0  0  0  0  0  0  0  0
   33.0467   40.9211    2.1377 C   0  0  0  0  0  0  0  0  0  0  0  0
   33.2684   41.3891    3.5130 N   0  0  0  0  0  0  0  0  0  0  0  0
  1  2  1  1  0  0  0
  1  7  1  0  0  0  0
  1 30  1  0  0  0  0
  3  4  1  6  0  0  0
  3  9  1  0  0  0  0
  3 39  1  0  0  0  0
  5 10  1  0  0  0  0
  5 26  1  0  0  0  0
  5 32  1  6  0  0  0
  6 12  1  0  0  0  0
  6 36  1  0  0  0  0
  6 19  1  6  0  0  0
  7  8  1  1  0  0  0
  7 14  1  0  0  0  0
  9 16  1  0  0  0  0
 10 11  1  1  0  0  0
 10 18  1  0  0  0  0
 12 13  1  6  0  0  0
 12 20  1  0  0  0  0
 14 15  1  6  0  0  0
 14 22  1  0  0  0  0
 16 17  1  6  0  0  0
 16 24  1  0  0  0  0
 18 19  1  6  0  0  0
 18 25  1  0  0  0  0
 20 21  1  1  0  0  0
 20 27  1  0  0  0  0
 22 23  1  1  0  0  0
 22 29  1  0  0  0  0
 24  2  1  1  0  0  0
 24 31  1  0  0  0  0
 25 26  1  0  0  0  0
 25 33  1  1  0  0  0
 27 28  1  6  0  0  0
 27 35  1  0  0  0  0
 29 30  1  0  0  0  0
 29 37  1  6  0  0  0
 31 32  1  1  0  0  0
 31 39  1  0  0  0  0
 33 34  1  0  0  0  0
 35 36  1  0  0  0  0
 35 41  1  6  0  0  0
 37 38  1  0  0  0  0
 39 40  1  1  0  0  0
 41 42  1  0  0  0  0
M  END
>  <CHROM.1>
174.05129716,165.00530181,-163.65098685,109.53720680,37.25014872,66.15678498
-94.40006155,57.13940324,96.78575505,36.76398174,40.82391693,-3.41036046
-0.10045290,-1.11312550,-3.00436167

>  <Name>
3c44_lig

>  <RI>
224

>  <Rbt.Current_Directory>
/home/itssahil/PROJECTS/Mol_Feturizer/New_Systems/rnas/3c44

>  <Rbt.Executable>
rbdock ($Id: //depot/dev/client3/rdock/2013.1/src/exe/rbdock.cxx#4 $)

>  <Rbt.Library>
libRbt.so (2013.1, Build901 2013/11/27)

>  <Rbt.Parameter_File>
/export/apps/rDock/src/rDock_2013.1_src/data/scripts/dock_solv.prm

>  <Rbt.Receptor>
prm/blind_docking_60.prm

>  <SCORE>
-1.02854

>  <SCORE.INTER>
-12.6768

>  <SCORE.INTER.CONST>
1

>  <SCORE.INTER.POLAR>
-0.101878

>  <SCORE.INTER.ROT>
9

>  <SCORE.INTER.SOLV>
24.5415

>  <SCORE.INTER.VDW>
-25.8921

>  <SCORE.INTER.norm>
-0.301829

>  <SCORE.INTRA>
7.40884

>  <SCORE.INTRA.DIHEDRAL>
3.37182

>  <SCORE.INTRA.DIHEDRAL.0>
14.8538

>  <SCORE.INTRA.POLAR>
0

>  <SCORE.INTRA.POLAR.0>
0

>  <SCORE.INTRA.REPUL>
0.168749

>  <SCORE.INTRA.REPUL.0>
0

>  <SCORE.INTRA.SOLV>
-0.592123

>  <SCORE.INTRA.SOLV.lig_0>
-100.951

>  <SCORE.INTRA.VDW>
5.17525

>  <SCORE.INTRA.VDW.0>
-5.71388

>  <SCORE.INTRA.norm>
0.176401

>  <SCORE.RESTR>
4.23943

>  <SCORE.RESTR.CAVITY>
4.23943

>  <SCORE.RESTR.norm>
0.100939

>  <SCORE.SYSTEM>
0

>  <SCORE.SYSTEM.CONST>
0

>  <SCORE.SYSTEM.DIHEDRAL>
0

>  <SCORE.SYSTEM.SOLV>
0

>  <SCORE.SYSTEM.norm>
0

>  <SCORE.heavy>
42

>  <SCORE.norm>
-0.0244891

>  <RMSD>
12.721

$$$$
3c44_lig
 OpenBabel11021811463D
libRbt.so/2013.1/901 2013/11/27
 42 45  0  0  0  0  0  0  0  0999 V2000
   33.9289   39.5528    0.9082 C   0  0  2  0  0  0  0  0  0  0  0  0
   34.6416   40.7272    1.3262 O   0  0  0  0  0  0  0  0  0  0  0  0
   31.9738   42.8954   -0.9914 C   0  0  2  0  0  0  0  0  0  0  0  0
   31.1131   43.8386   -1.7218 N   0  0  0  0  0  0  0  0  0  0  0  0
   36.1178   41.7212   -2.3262 C   0  0  1  0  0  0  0  0  0  0  0  0
   37.2507   41.1153   -6.3406 C   0  0  1  0  0  0  0  0  0  0  0  0
   34.0931   38.4622    1.9720 C   0  0  2  0  0  0  0  0  0  0  0  0
   33.6789   38.9534    3.2942 N   0  0  0  0  0  0  0  0  0  0  0  0
   31.8482   43.1094    0.5198 C   0  0  0  0  0  0  0  0  0  0  0  0
   36.6948   42.8854   -3.1328 C   0  0  2  0  0  0  0  0  0  0  0  0
   35.6393   43.6114   -3.7658 O   0  0  0  0  0  0  0  0  0  0  0  0
   37.3907   39.5902   -6.3875 C   0  0  2  0  0  0  0  0  0  0  0  0
   38.0382   39.1479   -5.1448 N   0  0  0  0  0  0  0  0  0  0  0  0
   35.5422   37.9754    2.0511 C   0  0  1  0  0  0  0  0  0  0  0  0
   35.6151   36.8552    2.9383 O   0  0  0  0  0  0  0  0  0  0  0  0
   32.6437   42.0000    1.2158 C   0  0  2  0  0  0  0  0  0  0  0  0
   32.5975   42.2080    2.6710 N   0  0  0  0  0  0  0  0  0  0  0  0
   37.4627   42.1046   -4.1976 C   0  0  2  0  0  0  0  0  0  0  0  0
   36.5605   41.5003   -5.1388 O   0  0  0  0  0  0  0  0  0  0  0  0
   38.2512   39.1494   -7.5789 C   0  0  1  0  0  0  0  0  0  0  0  0
   37.5471   39.3553   -8.8064 O   0  0  0  0  0  0  0  0  0  0  0  0
   36.0266   37.5590    0.6611 C   0  0  2  0  0  0  0  0  0  0  0  0
   37.4120   37.2098    0.7198 O   0  0  0  0  0  0  0  0  0  0  0  0
   34.1103   41.9427    0.7702 C   0  0  2  0  0  0  0  0  0  0  0  0
   38.1030   41.0239   -3.3408 C   0  0  2  0  0  0  0  0  0  0  0  0
   37.2160   40.7959   -2.2242 O   0  0  0  0  0  0  0  0  0  0  0  0
   39.5642   39.9325   -7.6281 C   0  0  2  0  0  0  0  0  0  0  0  0
   40.3687   39.5566   -6.5067 O   0  0  0  0  0  0  0  0  0  0  0  0
   35.8284   38.7170   -0.3183 C   0  0  2  0  0  0  0  0  0  0  0  0
   34.4398   39.1009   -0.3598 O   0  0  0  0  0  0  0  0  0  0  0  0
   34.3073   41.9693   -0.7441 C   0  0  2  0  0  0  0  0  0  0  0  0
   35.6938   42.2039   -1.0394 O   0  0  0  0  0  0  0  0  0  0  0  0
   39.4770   41.4989   -2.8634 C   0  0  0  0  0  0  0  0  0  0  0  0
   40.3144   41.7239   -3.9996 O   0  0  0  0  0  0  0  0  0  0  0  0
   39.2523   41.4307   -7.5842 C   0  0  1  0  0  0  0  0  0  0  0  0
   38.5562   41.7145   -6.3577 O   0  0  0  0  0  0  0  0  0  0  0  0
   36.2806   38.2387   -1.7003 C   0  0  0  0  0  0  0  0  0  0  0  0
   35.1260   37.7501   -2.4679 O   0  0  0  0  0  0  0  0  0  0  0  0
   33.4426   43.0582   -1.3904 C   0  0  1  0  0  0  0  0  0  0  0  0
   33.5741   43.0068   -2.8128 O   0  0  0  0  0  0  0  0  0  0  0  0
   40.5171   42.2875   -7.6511 C   0  0  0  0  0  0  0  0  0  0  0  0
   41.4306   41.8867   -6.5720 N   0  0  0  0  0  0  0  0  0  0  0  0
  1  2  1  1  0  0  0
  1  7  1  0  0  0  0
  1 30  1  0  0  0  0
  3  4  1  6  0  0  0
  3  9  1  0  0  0  0
  3 39  1  0  0  0  0
  5 10  1  0  0  0  0
  5 26  1  0  0  0  0
  5 32  1  1  0  0  0
  6 12  1  0  0  0  0
  6 36  1  0  0  0  0
  6 19  1  1  0  0  0
  7  8  1  1  0  0  0
  7 14  1  0  0  0  0
  9 16  1  0  0  0  0
 10 11  1  6  0  0  0
 10 18  1  0  0  0  0
 12 13  1  1  0  0  0
 12 20  1  0  0  0  0
 14 15  1  1  0  0  0
 14 22  1  0  0  0  0
 16 17  1  1  0  0  0
 16 24  1  0  0  0  0
 18 19  1  6  0  0  0
 18 25  1  0  0  0  0
 20 21  1  6  0  0  0
 20 27  1  0  0  0  0
 22 23  1  1  0  0  0
 22 29  1  0  0  0  0
 24  2  1  6  0  0  0
 24 31  1  0  0  0  0
 25 26  1  0  0  0  0
 25 33  1  1  0  0  0
 27 28  1  1  0  0  0
 27 35  1  0  0  0  0
 29 30  1  0  0  0  0
 29 37  1  6  0  0  0
 31 32  1  1  0  0  0
 31 39  1  0  0  0  0
 33 34  1  0  0  0  0
 35 36  1  0  0  0  0
 35 41  1  1  0  0  0
 37 38  1  0  0  0  0
 39 40  1  6  0  0  0
 41 42  1  0  0  0  0
M  END
>  <CHROM.1>
-153.99080198,122.42774690,107.25790245,162.69166934,58.08903186,-61.72395531
95.15299633,155.58894399,-55.33318864,36.21231026,40.68399845,-2.44761346
-2.43497336,0.75030298,-0.83146792

>  <Name>
3c44_lig

>  <RI>
0

>  <Rbt.Current_Directory>
/home/itssahil/PROJECTS/Mol_Feturizer/New_Systems/rnas/3c44

>  <Rbt.Executable>
rbdock ($Id: //depot/dev/client3/rdock/2013.1/src/exe/rbdock.cxx#4 $)

>  <Rbt.Library>
libRbt.so (2013.1, Build901 2013/11/27)

>  <Rbt.Parameter_File>
/export/apps/rDock/src/rDock_2013.1_src/data/scripts/dock_solv.prm

>  <Rbt.Receptor>
prm/blind_docking_80.prm

>  <SCORE>
14.7325

>  <SCORE.INTER>
-9.92706

>  <SCORE.INTER.CONST>
1

>  <SCORE.INTER.POLAR>
-1.39424

>  <SCORE.INTER.ROT>
9

>  <SCORE.INTER.SOLV>
16.9087

>  <SCORE.INTER.VDW>
-17.2068

>  <SCORE.INTER.norm>
-0.236359

>  <SCORE.INTRA>
14.1726

>  <SCORE.INTRA.DIHEDRAL>
9.1656

>  <SCORE.INTRA.DIHEDRAL.0>
14.8538

>  <SCORE.INTRA.POLAR>
0

>  <SCORE.INTRA.POLAR.0>
0

>  <SCORE.INTRA.REPUL>
0.0860131

>  <SCORE.INTRA.REPUL.0>
0

>  <SCORE.INTRA.SOLV>
5.50576

>  <SCORE.INTRA.SOLV.lig_0>
-100.951

>  <SCORE.INTRA.VDW>
6.40682

>  <SCORE.INTRA.VDW.0>
-5.71388

>  <SCORE.INTRA.norm>
0.337442

>  <SCORE.RESTR>
10.487

>  <SCORE.RESTR.CAVITY>
10.487

>  <SCORE.RESTR.norm>
0.249691

>  <SCORE.SYSTEM>
0

>  <SCORE.SYSTEM.CONST>
0

>  <SCORE.SYSTEM.DIHEDRAL>
0

>  <SCORE.SYSTEM.SOLV>
0

>  <SCORE.SYSTEM.norm>
0

>  <SCORE.heavy>
42

>  <SCORE.norm>
0.350774

>  <RMSD>
12.737

$$$$
3c44_lig
 OpenBabel11021811463D
libRbt.so/2013.1/901 2013/11/27
 42 45  0  0  0  0  0  0  0  0999 V2000
   36.5681   40.1455   -6.6378 C   0  0  2  0  0  0  0  0  0  0  0  0
   36.3848   41.3983   -5.9606 O   0  0  0  0  0  0  0  0  0  0  0  0
   39.7655   42.7976   -7.9105 C   0  0  2  0  0  0  0  0  0  0  0  0
   40.8764   43.4886   -8.5831 N   0  0  0  0  0  0  0  0  0  0  0  0
   37.4059   42.1847   -3.6213 C   0  0  1  0  0  0  0  0  0  0  0  0
   35.7871   40.2511   -0.2640 C   0  0  1  0  0  0  0  0  0  0  0  0
   35.6681   39.0889   -5.9885 C   0  0  2  0  0  0  0  0  0  0  0  0
   34.2682   39.5366   -5.9638 N   0  0  0  0  0  0  0  0  0  0  0  0
   38.4364   43.1107   -8.6038 C   0  0  0  0  0  0  0  0  0  0  0  0
   37.5494   42.5357   -2.1396 C   0  0  2  0  0  0  0  0  0  0  0  0
   38.5163   41.6806   -1.5267 O   0  0  0  0  0  0  0  0  0  0  0  0
   35.8674   38.7215   -0.2225 C   0  0  2  0  0  0  0  0  0  0  0  0
   34.9319   38.1831   -1.2195 N   0  0  0  0  0  0  0  0  0  0  0  0
   36.1182   38.7765   -4.5592 C   0  0  1  0  0  0  0  0  0  0  0  0
   35.3527   37.6785   -4.0535 O   0  0  0  0  0  0  0  0  0  0  0  0
   37.3549   42.2417   -7.9534 C   0  0  2  0  0  0  0  0  0  0  0  0
   36.0499   42.5596   -8.5526 N   0  0  0  0  0  0  0  0  0  0  0  0
   36.1591   42.1401   -1.6460 C   0  0  2  0  0  0  0  0  0  0  0  0
   36.0177   40.7106   -1.6075 O   0  0  0  0  0  0  0  0  0  0  0  0
   35.4804   38.1841    1.1615 C   0  0  1  0  0  0  0  0  0  0  0  0
   36.4952   38.4955    2.1196 O   0  0  0  0  0  0  0  0  0  0  0  0
   37.6036   38.4108   -4.5509 C   0  0  2  0  0  0  0  0  0  0  0  0
   38.0457   38.2274   -3.2034 O   0  0  0  0  0  0  0  0  0  0  0  0
   37.2624   42.4346   -6.4346 C   0  0  2  0  0  0  0  0  0  0  0  0
   35.2969   42.7065   -2.7631 C   0  0  2  0  0  0  0  0  0  0  0  0
   36.0964   42.6740   -3.9652 O   0  0  0  0  0  0  0  0  0  0  0  0
   34.1564   38.7865    1.6345 C   0  0  2  0  0  0  0  0  0  0  0  0
   33.1016   38.2944    0.8030 O   0  0  0  0  0  0  0  0  0  0  0  0
   38.4103   39.5309   -5.2097 C   0  0  2  0  0  0  0  0  0  0  0  0
   37.9497   39.7484   -6.5579 O   0  0  0  0  0  0  0  0  0  0  0  0
   38.6060   42.3703   -5.7112 C   0  0  2  0  0  0  0  0  0  0  0  0
   38.4446   42.8456   -4.3648 O   0  0  0  0  0  0  0  0  0  0  0  0
   34.8866   44.1388   -2.4141 C   0  0  0  0  0  0  0  0  0  0  0  0
   33.8868   44.1031   -1.3934 O   0  0  0  0  0  0  0  0  0  0  0  0
   34.2425   40.3122    1.5423 C   0  0  1  0  0  0  0  0  0  0  0  0
   34.4842   40.6719    0.1706 O   0  0  0  0  0  0  0  0  0  0  0  0
   39.8792   39.1000   -5.2215 C   0  0  0  0  0  0  0  0  0  0  0  0
   40.5246   39.4730   -3.9546 O   0  0  0  0  0  0  0  0  0  0  0  0
   39.6618   43.2100   -6.4400 C   0  0  1  0  0  0  0  0  0  0  0  0
   40.9306   43.0645   -5.7982 O   0  0  0  0  0  0  0  0  0  0  0  0
   32.9598   40.9944    2.0196 C   0  0  0  0  0  0  0  0  0  0  0  0
   33.1123   42.4509    1.8975 N   0  0  0  0  0  0  0  0  0  0  0  0
  1  2  1  1  0  0  0
  1  7  1  0  0  0  0
  1 30  1  0  0  0  0
  3  4  1  6  0  0  0
  3  9  1  0  0  0  0
  3 39  1  0  0  0  0
  5 10  1  0  0  0  0
  5 26  1  0  0  0  0
  5 32  1  6  0  0  0
  6 12  1  0  0  0  0
  6 36  1  0  0  0  0
  6 19  1  6  0  0  0
  7  8  1  1  0  0  0
  7 14  1  0  0  0  0
  9 16  1  0  0  0  0
 10 11  1  1  0  0  0
 10 18  1  0  0  0  0
 12 13  1  6  0  0  0
 12 20  1  0  0  0  0
 14 15  1  6  0  0  0
 14 22  1  0  0  0  0
 16 17  1  6  0  0  0
 16 24  1  0  0  0  0
 18 19  1  6  0  0  0
 18 25  1  0  0  0  0
 20 21  1  1  0  0  0
 20 27  1  0  0  0  0
 22 23  1  1  0  0  0
 22 29  1  0  0  0  0
 24  2  1  1  0  0  0
 24 31  1  0  0  0  0
 25 26  1  0  0  0  0
 25 33  1  1  0  0  0
 27 28  1  6  0  0  0
 27 35  1  0  0  0  0
 29 30  1  0  0  0  0
 29 37  1  6  0  0  0
 31 32  1  1  0  0  0
 31 39  1  0  0  0  0
 33 34  1  0  0  0  0
 35 36  1  0  0  0  0
 35 41  1  6  0  0  0
 37 38  1  0  0  0  0
 39 40  1  1  0  0  0
 41 42  1  0  0  0  0
M  END
>  <CHROM.1>
175.67179992,166.83709935,-170.89289565,117.50139174,38.44498591,-73.95879728
-86.29108837,53.75225870,-179.75089373,36.68647983,40.88406982,-3.38703933
-0.48486736,-1.02038475,2.84980773

>  <Name>
3c44_lig

>  <RI>
0

>  <Rbt.Current_Directory>
/home/itssahil/PROJECTS/Mol_Feturizer/New_Systems/rnas/3c44

>  <Rbt.Executable>
rbdock ($Id: //depot/dev/client3/rdock/2013.1/src/exe/rbdock.cxx#4 $)

>  <Rbt.Library>
libRbt.so (2013.1, Build901 2013/11/27)

>  <Rbt.Parameter_File>
/export/apps/rDock/src/rDock_2013.1_src/data/scripts/dock_solv.prm

>  <Rbt.Receptor>
prm/blind_docking_80.prm

>  <SCORE>
-3.05287

>  <SCORE.INTER>
-11.6714

>  <SCORE.INTER.CONST>
1

>  <SCORE.INTER.POLAR>
-1.33029e-05

>  <SCORE.INTER.ROT>
9

>  <SCORE.INTER.SOLV>
24.5642

>  <SCORE.INTER.VDW>
-25.5689

>  <SCORE.INTER.norm>
-0.27789

>  <SCORE.INTRA>
5.11432

>  <SCORE.INTRA.DIHEDRAL>
-1.49439

>  <SCORE.INTRA.DIHEDRAL.0>
14.8538

>  <SCORE.INTRA.POLAR>
0

>  <SCORE.INTRA.POLAR.0>
0

>  <SCORE.INTRA.REPUL>
0.162789

>  <SCORE.INTRA.REPUL.0>
0

>  <SCORE.INTRA.SOLV>
-0.641087

>  <SCORE.INTRA.SOLV.lig_0>
-100.951

>  <SCORE.INTRA.VDW>
5.36811

>  <SCORE.INTRA.VDW.0>
-5.71388

>  <SCORE.INTRA.norm>
0.121769

>  <SCORE.RESTR>
3.50421

>  <SCORE.RESTR.CAVITY>
3.50421

>  <SCORE.RESTR.norm>
0.0834336

>  <SCORE.SYSTEM>
0

>  <SCORE.SYSTEM.CONST>
0

>  <SCORE.SYSTEM.DIHEDRAL>
0

>  <SCORE.SYSTEM.SOLV>
0

>  <SCORE.SYSTEM.norm>
0

>  <SCORE.heavy>
42

>  <SCORE.norm>
-0.0726874

>  <RMSD>
12.752

$$$$
3c44_lig
 OpenBabel11021811463D
libRbt.so/2013.1/901 2013/11/27
 42 45  0  0  0  0  0  0  0  0999 V2000
   39.4602   39.8974   -5.5105 C   0  0  2  0  0  0  0  0  0  0  0  0
   38.2397   40.1786   -4.8083 O   0  0  0  0  0  0  0  0  0  0  0  0
   36.5028   40.8478   -8.5130 C   0  0  2  0  0  0  0  0  0  0  0  0
   35.6988   41.0595   -9.7265 N   0  0  0  0  0  0  0  0  0  0  0  0
   36.3597   42.2717   -4.0904 C   0  0  1  0  0  0  0  0  0  0  0  0
   35.6317   40.8265   -0.1719 C   0  0  1  0  0  0  0  0  0  0  0  0
   40.6005   39.7574   -4.4965 C   0  0  2  0  0  0  0  0  0  0  0  0
   40.2729   38.7522   -3.4751 N   0  0  0  0  0  0  0  0  0  0  0  0
   36.1559   39.5052   -7.8632 C   0  0  0  0  0  0  0  0  0  0  0  0
   37.1801   42.7654   -2.8978 C   0  0  2  0  0  0  0  0  0  0  0  0
   38.3288   41.9349   -2.7179 O   0  0  0  0  0  0  0  0  0  0  0  0
   35.8634   39.3551    0.1877 C   0  0  2  0  0  0  0  0  0  0  0  0
   35.2254   38.5226   -0.8413 N   0  0  0  0  0  0  0  0  0  0  0  0
   40.8995   41.0911   -3.8073 C   0  0  1  0  0  0  0  0  0  0  0  0
   42.0670   40.9491   -2.9925 O   0  0  0  0  0  0  0  0  0  0  0  0
   37.1329   39.2816   -6.7041 C   0  0  2  0  0  0  0  0  0  0  0  0
   36.7916   38.0279   -6.0152 N   0  0  0  0  0  0  0  0  0  0  0  0
   36.1886   42.4852   -1.7703 C   0  0  2  0  0  0  0  0  0  0  0  0
   36.0939   41.0749   -1.5111 O   0  0  0  0  0  0  0  0  0  0  0  0
   35.2488   39.0150    1.5518 C   0  0  1  0  0  0  0  0  0  0  0  0
   35.9963   39.6312    2.6037 O   0  0  0  0  0  0  0  0  0  0  0  0
   41.1387   42.1765   -4.8585 C   0  0  2  0  0  0  0  0  0  0  0  0
   41.3083   43.4413   -4.2131 O   0  0  0  0  0  0  0  0  0  0  0  0
   37.1247   40.4258   -5.6827 C   0  0  2  0  0  0  0  0  0  0  0  0
   34.8976   42.9727   -2.4090 C   0  0  2  0  0  0  0  0  0  0  0  0
   35.0382   42.7817   -3.8334 O   0  0  0  0  0  0  0  0  0  0  0  0
   33.7979   39.4921    1.6353 C   0  0  2  0  0  0  0  0  0  0  0  0
   33.0037   38.7161    0.7335 O   0  0  0  0  0  0  0  0  0  0  0  0
   39.9429   42.2401   -5.8100 C   0  0  2  0  0  0  0  0  0  0  0  0
   39.7407   40.9601   -6.4406 O   0  0  0  0  0  0  0  0  0  0  0  0
   37.2278   41.8188   -6.3004 C   0  0  2  0  0  0  0  0  0  0  0  0
   36.9213   42.8058   -5.3020 O   0  0  0  0  0  0  0  0  0  0  0  0
   34.6875   44.4501   -2.0705 C   0  0  0  0  0  0  0  0  0  0  0  0
   33.3681   44.8362   -2.4617 O   0  0  0  0  0  0  0  0  0  0  0  0
   33.7391   40.9750    1.2593 C   0  0  1  0  0  0  0  0  0  0  0  0
   34.2288   41.1230   -0.0852 O   0  0  0  0  0  0  0  0  0  0  0  0
   40.2480   43.3028   -6.8688 C   0  0  0  0  0  0  0  0  0  0  0  0
   41.5043   42.9797   -7.5604 O   0  0  0  0  0  0  0  0  0  0  0  0
   36.2715   41.9631   -7.4902 C   0  0  1  0  0  0  0  0  0  0  0  0
   36.4480   43.2402   -8.1074 O   0  0  0  0  0  0  0  0  0  0  0  0
   32.3189   41.5364    1.3389 C   0  0  0  0  0  0  0  0  0  0  0  0
   32.2889   42.8665    0.7148 N   0  0  0  0  0  0  0  0  0  0  0  0
  1  2  1  1  0  0  0
  1  7  1  0  0  0  0
  1 30  1  0  0  0  0
  3  4  1  6  0  0  0
  3  9  1  0  0  0  0
  3 39  1  0  0  0  0
  5 10  1  0  0  0  0
  5 26  1  0  0  0  0
  5 32  1  6  0  0  0
  6 12  1  0  0  0  0
  6 36  1  0  0  0  0
  6 19  1  6  0  0  0
  7  8  1  1  0  0  0
  7 14  1  0  0  0  0
  9 16  1  0  0  0  0
 10 11  1  1  0  0  0
 10 18  1  0  0  0  0
 12 13  1  6  0  0  0
 12 20  1  0  0  0  0
 14 15  1  6  0  0  0
 14 22  1  0  0  0  0
 16 17  1  1  0  0  0
 16 24  1  0  0  0  0
 18 19  1  6  0  0  0
 18 25  1  0  0  0  0
 20 21  1  1  0  0  0
 20 27  1  0  0  0  0
 22 23  1  1  0  0  0
 22 29  1  0  0  0  0
 24  2  1  1  0  0  0
 24 31  1  0  0  0  0
 25 26  1  0  0  0  0
 25 33  1  6  0  0  0
 27 28  1  6  0  0  0
 27 35  1  0  0  0  0
 29 30  1  0  0  0  0
 29 37  1  6  0  0  0
 31 32  1  1  0  0  0
 31 39  1  0  0  0  0
 33 34  1  0  0  0  0
 35 36  1  0  0  0  0
 35 41  1  6  0  0  0
 37 38  1  0  0  0  0
 39 40  1  6  0  0  0
 41 42  1  0  0  0  0
M  END
>  <CHROM.1>
175.67246134,126.66613025,-166.31364251,156.49682932,48.63911454,-169.57473358
56.90707781,-11.24773362,-168.73870095,36.94445772,41.27687063,-3.50234622
-0.95184704,-0.22565143,1.83336398

>  <Name>
3c44_lig

>  <RI>
0

>  <Rbt.Current_Directory>
/home/itssahil/PROJECTS/Mol_Feturizer/New_Systems/rnas/3c44

>  <Rbt.Executable>
rbdock ($Id: //depot/dev/client3/rdock/2013.1/src/exe/rbdock.cxx#4 $)

>  <Rbt.Library>
libRbt.so (2013.1, Build901 2013/11/27)

>  <Rbt.Parameter_File>
/export/apps/rDock/src/rDock_2013.1_src/data/scripts/dock_solv.prm

>  <Rbt.Receptor>
prm/blind_docking_100.prm

>  <SCORE>
3.459

>  <SCORE.INTER>
-13.1057

>  <SCORE.INTER.CONST>
1

>  <SCORE.INTER.POLAR>
-0.857754

>  <SCORE.INTER.ROT>
9

>  <SCORE.INTER.SOLV>
23.9071

>  <SCORE.INTER.VDW>
-23.447

>  <SCORE.INTER.norm>
-0.312041

>  <SCORE.INTRA>
10.824

>  <SCORE.INTRA.DIHEDRAL>
3.63738

>  <SCORE.INTRA.DIHEDRAL.0>
14.8538

>  <SCORE.INTRA.POLAR>
0

>  <SCORE.INTRA.POLAR.0>
0

>  <SCORE.INTRA.REPUL>
0.345961

>  <SCORE.INTRA.REPUL.0>
0

>  <SCORE.INTRA.SOLV>
-1.75595

>  <SCORE.INTRA.SOLV.lig_0>
-100.951

>  <SCORE.INTRA.VDW>
8.15348

>  <SCORE.INTRA.VDW.0>
-5.71388

>  <SCORE.INTRA.norm>
0.257714

>  <SCORE.RESTR>
5.74071

>  <SCORE.RESTR.CAVITY>
5.74071

>  <SCORE.RESTR.norm>
0.136684

>  <SCORE.SYSTEM>
0

>  <SCORE.SYSTEM.CONST>
0

>  <SCORE.SYSTEM.DIHEDRAL>
0

>  <SCORE.SYSTEM.SOLV>
0

>  <SCORE.SYSTEM.norm>
0

>  <SCORE.heavy>
42

>  <SCORE.norm>
0.0823573

>  <RMSD>
12.757

$$$$
3c44_lig
 OpenBabel11021811463D
libRbt.so/2013.1/901 2013/11/27
 42 45  0  0  0  0  0  0  0  0999 V2000
   38.2057   44.1169   -8.7990 C   0  0  2  0  0  0  0  0  0  0  0  0
   39.2785   43.8436   -7.8845 O   0  0  0  0  0  0  0  0  0  0  0  0
   38.2947   39.8930   -7.1006 C   0  0  2  0  0  0  0  0  0  0  0  0
   37.9983   38.5350   -6.6191 N   0  0  0  0  0  0  0  0  0  0  0  0
   36.9187   43.3591   -5.0404 C   0  0  1  0  0  0  0  0  0  0  0  0
   35.1290   42.9498   -1.8219 C   0  0  1  0  0  0  0  0  0  0  0  0
   38.7563   44.8952   -9.9986 C   0  0  2  0  0  0  0  0  0  0  0  0
   39.8795   44.1772  -10.6183 N   0  0  0  0  0  0  0  0  0  0  0  0
   39.7302   40.2904   -6.7448 C   0  0  0  0  0  0  0  0  0  0  0  0
   36.3261   42.1146   -4.3778 C   0  0  2  0  0  0  0  0  0  0  0  0
   34.9214   42.2879   -4.1816 O   0  0  0  0  0  0  0  0  0  0  0  0
   34.3350   44.2524   -1.6777 C   0  0  2  0  0  0  0  0  0  0  0  0
   35.0618   45.1361   -0.7558 N   0  0  0  0  0  0  0  0  0  0  0  0
   39.2230   46.2940   -9.5879 C   0  0  1  0  0  0  0  0  0  0  0  0
   39.5781   47.0351  -10.7592 O   0  0  0  0  0  0  0  0  0  0  0  0
   40.0182   41.6415   -7.4079 C   0  0  2  0  0  0  0  0  0  0  0  0
   41.3702   42.0867   -7.0377 N   0  0  0  0  0  0  0  0  0  0  0  0
   37.0253   42.1878   -3.0218 C   0  0  2  0  0  0  0  0  0  0  0  0
   36.4783   43.2483   -2.2210 O   0  0  0  0  0  0  0  0  0  0  0  0
   32.9346   43.9873   -1.1098 C   0  0  1  0  0  0  0  0  0  0  0  0
   32.1194   43.3252   -2.0804 O   0  0  0  0  0  0  0  0  0  0  0  0
   38.0991   47.0191   -8.8454 C   0  0  2  0  0  0  0  0  0  0  0  0
   38.5743   48.2805   -8.3680 O   0  0  0  0  0  0  0  0  0  0  0  0
   39.0130   42.7306   -7.0130 C   0  0  2  0  0  0  0  0  0  0  0  0
   38.4355   42.5544   -3.4566 C   0  0  2  0  0  0  0  0  0  0  0  0
   38.3120   43.3092   -4.6815 O   0  0  0  0  0  0  0  0  0  0  0  0
   33.0065   43.1182    0.1468 C   0  0  2  0  0  0  0  0  0  0  0  0
   33.6300   43.8687    1.1928 O   0  0  0  0  0  0  0  0  0  0  0  0
   37.6306   46.1654   -7.6661 C   0  0  2  0  0  0  0  0  0  0  0  0
   37.1814   44.8776   -8.1319 O   0  0  0  0  0  0  0  0  0  0  0  0
   37.5507   42.3034   -7.1210 C   0  0  2  0  0  0  0  0  0  0  0  0
   36.7214   43.2748   -6.4626 O   0  0  0  0  0  0  0  0  0  0  0  0
   39.2491   41.2774   -3.6774 C   0  0  0  0  0  0  0  0  0  0  0  0
   39.3364   40.5598   -2.4444 O   0  0  0  0  0  0  0  0  0  0  0  0
   33.8189   41.8586   -0.1650 C   0  0  1  0  0  0  0  0  0  0  0  0
   35.1423   42.2581   -0.5630 O   0  0  0  0  0  0  0  0  0  0  0  0
   36.4774   46.9070   -6.9853 C   0  0  0  0  0  0  0  0  0  0  0  0
   35.3718   47.1008   -7.9346 O   0  0  0  0  0  0  0  0  0  0  0  0
   37.3358   40.9206   -6.4943 C   0  0  1  0  0  0  0  0  0  0  0  0
   35.9824   40.5023   -6.6852 O   0  0  0  0  0  0  0  0  0  0  0  0
   33.9203   40.9221    1.0397 C   0  0  0  0  0  0  0  0  0  0  0  0
   34.1166   41.7205    2.2578 N   0  0  0  0  0  0  0  0  0  0  0  0
  1  2  1  1  0  0  0
  1  7  1  0  0  0  0
  1 30  1  0  0  0  0
  3  4  1  1  0  0  0
  3  9  1  0  0  0  0
  3 39  1  0  0  0  0
  5 10  1  0  0  0  0
  5 26  1  0  0  0  0
  5 32  1  6  0  0  0
  6 12  1  0  0  0  0
  6 36  1  0  0  0  0
  6 19  1  1  0  0  0
  7  8  1  1  0  0  0
  7 14  1  0  0  0  0
  9 16  1  0  0  0  0
 10 11  1  1  0  0  0
 10 18  1  0  0  0  0
 12 13  1  1  0  0  0
 12 20  1  0  0  0  0
 14 15  1  6  0  0  0
 14 22  1  0  0  0  0
 16 17  1  1  0  0  0
 16 24  1  0  0  0  0
 18 19  1  1  0  0  0
 18 25  1  0  0  0  0
 20 21  1  6  0  0  0
 20 27  1  0  0  0  0
 22 23  1  1  0  0  0
 22 29  1  0  0  0  0
 24  2  1  6  0  0  0
 24 31  1  0  0  0  0
 25 26  1  0  0  0  0
 25 33  1  6  0  0  0
 27 28  1  1  0  0  0
 27 35  1  0  0  0  0
 29 30  1  0  0  0  0
 29 37  1  6  0  0  0
 31 32  1  1  0  0  0
 31 39  1  0  0  0  0
 33 34  1  0  0  0  0
 35 36  1  0  0  0  0
 35 41  1  1  0  0  0
 37 38  1  0  0  0  0
 39 40  1  6  0  0  0
 41 42  1  0  0  0  0
M  END
>  <CHROM.1>
-157.93789924,-72.16684164,-149.36529927,68.43622387,113.54400724,-61.87012451
60.16675407,-65.62611521,-40.00459364,36.94823826,43.29254868,-5.01589647
0.77116715,0.87391826,-0.65215979

>  <Name>
3c44_lig

>  <RI>
0

>  <Rbt.Current_Directory>
/home/itssahil/PROJECTS/Mol_Feturizer/New_Systems/rnas/3c44

>  <Rbt.Executable>
rbdock ($Id: //depot/dev/client3/rdock/2013.1/src/exe/rbdock.cxx#4 $)

>  <Rbt.Library>
libRbt.so (2013.1, Build901 2013/11/27)

>  <Rbt.Parameter_File>
/export/apps/rDock/src/rDock_2013.1_src/data/scripts/dock_solv.prm

>  <Rbt.Receptor>
prm/blind_docking_100.prm

>  <SCORE>
15.1622

>  <SCORE.INTER>
-4.26691

>  <SCORE.INTER.CONST>
1

>  <SCORE.INTER.POLAR>
-0.824442

>  <SCORE.INTER.ROT>
9

>  <SCORE.INTER.SOLV>
23.7186

>  <SCORE.INTER.VDW>
-17.6027

>  <SCORE.INTER.norm>
-0.101593

>  <SCORE.INTRA>
16.9678

>  <SCORE.INTRA.DIHEDRAL>
0.893046

>  <SCORE.INTRA.DIHEDRAL.0>
14.8538

>  <SCORE.INTRA.POLAR>
0

>  <SCORE.INTRA.POLAR.0>
0

>  <SCORE.INTRA.REPUL>
0

>  <SCORE.INTRA.REPUL.0>
0

>  <SCORE.INTRA.SOLV>
-0.304916

>  <SCORE.INTRA.SOLV.lig_0>
-100.951

>  <SCORE.INTRA.VDW>
16.6737

>  <SCORE.INTRA.VDW.0>
-5.71388

>  <SCORE.INTRA.norm>
0.403995

>  <SCORE.RESTR>
2.46134

>  <SCORE.RESTR.CAVITY>
2.46134

>  <SCORE.RESTR.norm>
0.0586034

>  <SCORE.SYSTEM>
0

>  <SCORE.SYSTEM.CONST>
0

>  <SCORE.SYSTEM.DIHEDRAL>
0

>  <SCORE.SYSTEM.SOLV>
0

>  <SCORE.SYSTEM.norm>
0

>  <SCORE.heavy>
42

>  <SCORE.norm>
0.361005

>  <RMSD>
12.772

$$$$
3c44_lig
 OpenBabel11021811463D
libRbt.so/2013.1/901 2013/11/27
 42 45  0  0  0  0  0  0  0  0999 V2000
   38.1447   40.3270   -6.2580 C   0  0  2  0  0  0  0  0  0  0  0  0
   38.0888   41.4366   -7.1676 O   0  0  0  0  0  0  0  0  0  0  0  0
   40.9235   43.3951   -4.8616 C   0  0  2  0  0  0  0  0  0  0  0  0
   41.8757   44.2655   -4.1547 N   0  0  0  0  0  0  0  0  0  0  0  0
   36.4072   42.5543   -3.9934 C   0  0  1  0  0  0  0  0  0  0  0  0
   35.6930   40.5480   -0.3200 C   0  0  1  0  0  0  0  0  0  0  0  0
   38.7385   39.1146   -6.9828 C   0  0  2  0  0  0  0  0  0  0  0  0
   40.0421   39.4457   -7.5762 N   0  0  0  0  0  0  0  0  0  0  0  0
   41.1617   43.4503   -6.3733 C   0  0  0  0  0  0  0  0  0  0  0  0
   36.9881   42.8974   -2.6209 C   0  0  2  0  0  0  0  0  0  0  0  0
   38.1239   42.0734   -2.3515 O   0  0  0  0  0  0  0  0  0  0  0  0
   35.9297   39.0346   -0.2817 C   0  0  2  0  0  0  0  0  0  0  0  0
   34.9673   38.3939   -1.1885 N   0  0  0  0  0  0  0  0  0  0  0  0
   37.8020   38.6103   -8.0837 C   0  0  1  0  0  0  0  0  0  0  0  0
   38.3214   37.3906   -8.6220 O   0  0  0  0  0  0  0  0  0  0  0  0
   40.2468   42.4098   -7.0280 C   0  0  2  0  0  0  0  0  0  0  0  0
   40.4027   42.4756   -8.4889 N   0  0  0  0  0  0  0  0  0  0  0  0
   35.8308   42.4463   -1.7320 C   0  0  2  0  0  0  0  0  0  0  0  0
   35.7547   41.0123   -1.6800 O   0  0  0  0  0  0  0  0  0  0  0  0
   35.7245   38.4776    1.1331 C   0  0  1  0  0  0  0  0  0  0  0  0
   36.7848   38.9000    1.9946 O   0  0  0  0  0  0  0  0  0  0  0  0
   36.4079   38.3611   -7.5053 C   0  0  2  0  0  0  0  0  0  0  0  0
   35.5098   37.9964   -8.5566 O   0  0  0  0  0  0  0  0  0  0  0  0
   38.7665   42.6073   -6.6787 C   0  0  2  0  0  0  0  0  0  0  0  0
   34.6487   42.9902   -2.5188 C   0  0  2  0  0  0  0  0  0  0  0  0
   35.0402   42.9978   -3.9088 O   0  0  0  0  0  0  0  0  0  0  0  0
   34.3946   38.9505    1.7224 C   0  0  2  0  0  0  0  0  0  0  0  0
   33.3241   38.3460    0.9911 O   0  0  0  0  0  0  0  0  0  0  0  0
   35.9053   39.6304   -6.8157 C   0  0  2  0  0  0  0  0  0  0  0  0
   36.8213   40.0275   -5.7762 O   0  0  0  0  0  0  0  0  0  0  0  0
   38.4939   42.7998   -5.1883 C   0  0  2  0  0  0  0  0  0  0  0  0
   37.1447   43.2597   -5.0069 O   0  0  0  0  0  0  0  0  0  0  0  0
   34.3193   44.4032   -2.0326 C   0  0  0  0  0  0  0  0  0  0  0  0
   33.0783   44.8180   -2.6078 O   0  0  0  0  0  0  0  0  0  0  0  0
   34.3185   40.4761    1.6186 C   0  0  1  0  0  0  0  0  0  0  0  0
   34.3987   40.8419    0.2297 O   0  0  0  0  0  0  0  0  0  0  0  0
   34.5330   39.3190   -6.2130 C   0  0  0  0  0  0  0  0  0  0  0  0
   34.6834   38.4450   -5.0407 O   0  0  0  0  0  0  0  0  0  0  0  0
   39.4766   43.8055   -4.5767 C   0  0  1  0  0  0  0  0  0  0  0  0
   39.2620   43.9034   -3.1670 O   0  0  0  0  0  0  0  0  0  0  0  0
   33.0219   41.0325    2.2082 C   0  0  0  0  0  0  0  0  0  0  0  0
   33.1029   40.9964    3.6751 N   0  0  0  0  0  0  0  0  0  0  0  0
  1  2  1  6  0  0  0
  1  7  1  0  0  0  0
  1 30  1  0  0  0  0
  3  4  1  1  0  0  0
  3  9  1  0  0  0  0
  3 39  1  0  0  0  0
  5 10  1  0  0  0  0
  5 26  1  0  0  0  0
  5 32  1  6  0  0  0
  6 12  1  0  0  0  0
  6 36  1  0  0  0  0
  6 19  1  6  0  0  0
  7  8  1  6  0  0  0
  7 14  1  0  0  0  0
  9 16  1  0  0  0  0
 10 11  1  1  0  0  0
 10 18  1  0  0  0  0
 12 13  1  6  0  0  0
 12 20  1  0  0  0  0
 14 15  1  1  0  0  0
 14 22  1  0  0  0  0
 16 17  1  6  0  0  0
 16 24  1  0  0  0  0
 18 19  1  6  0  0  0
 18 25  1  0  0  0  0
 20 21  1  1  0  0  0
 20 27  1  0  0  0  0
 22 23  1  6  0  0  0
 22 29  1  0  0  0  0
 24  2  1  1  0  0  0
 24 31  1  0  0  0  0
 25 26  1  0  0  0  0
 25 33  1  1  0  0  0
 27 28  1  6  0  0  0
 27 35  1  0  0  0  0
 29 30  1  0  0  0  0
 29 37  1  1  0  0  0
 31 32  1  6  0  0  0
 31 39  1  0  0  0  0
 33 34  1  0  0  0  0
 35 36  1  0  0  0  0
 35 41  1  6  0  0  0
 37 38  1  0  0  0  0
 39 40  1  1  0  0  0
 41 42  1  0  0  0  0
M  END
>  <CHROM.1>
-124.60470620,69.09124321,-167.34909408,129.12300563,83.47147397,-170.20138822
72.33351349,132.49699032,75.45131086,36.73760682,41.05341422,-3.61029541
0.68701884,-0.88499112,-2.24628494

>  <Name>
3c44_lig

>  <RI>
224

>  <Rbt.Current_Directory>
/home/itssahil/PROJECTS/Mol_Feturizer/New_Systems/rnas/3c44

>  <Rbt.Executable>
rbdock ($Id: //depot/dev/client3/rdock/2013.1/src/exe/rbdock.cxx#4 $)

>  <Rbt.Library>
libRbt.so (2013.1, Build901 2013/11/27)

>  <Rbt.Parameter_File>
/export/apps/rDock/src/rDock_2013.1_src/data/scripts/dock_solv.prm

>  <Rbt.Receptor>
prm/blind_docking_60.prm

>  <SCORE>
31.2658

>  <SCORE.INTER>
13.6518

>  <SCORE.INTER.CONST>
1

>  <SCORE.INTER.POLAR>
-0.475697

>  <SCORE.INTER.ROT>
9

>  <SCORE.INTER.SOLV>
32.4325

>  <SCORE.INTER.VDW>
-9.72396

>  <SCORE.INTER.norm>
0.325043

>  <SCORE.INTRA>
11.7197

>  <SCORE.INTRA.DIHEDRAL>
10.5512

>  <SCORE.INTRA.DIHEDRAL.0>
14.8538

>  <SCORE.INTRA.POLAR>
0

>  <SCORE.INTRA.POLAR.0>
0

>  <SCORE.INTRA.REPUL>
0.26997

>  <SCORE.INTRA.REPUL.0>
0

>  <SCORE.INTRA.SOLV>
-1.15699

>  <SCORE.INTRA.SOLV.lig_0>
-100.951

>  <SCORE.INTRA.VDW>
5.6728

>  <SCORE.INTRA.VDW.0>
-5.71388

>  <SCORE.INTRA.norm>
0.279041

>  <SCORE.RESTR>
5.89428

>  <SCORE.RESTR.CAVITY>
5.89428

>  <SCORE.RESTR.norm>
0.14034

>  <SCORE.SYSTEM>
0

>  <SCORE.SYSTEM.CONST>
0

>  <SCORE.SYSTEM.DIHEDRAL>
0

>  <SCORE.SYSTEM.SOLV>
0

>  <SCORE.SYSTEM.norm>
0

>  <SCORE.heavy>
42

>  <SCORE.norm>
0.744424

>  <RMSD>
12.822

$$$$
3c44_lig
 OpenBabel11021811463D
libRbt.so/2013.1/901 2013/11/27
 42 45  0  0  0  0  0  0  0  0999 V2000
   39.0349   40.4205   -6.0667 C   0  0  2  0  0  0  0  0  0  0  0  0
   37.6970   40.5875   -5.5728 O   0  0  0  0  0  0  0  0  0  0  0  0
   37.3048   43.7393   -8.2377 C   0  0  2  0  0  0  0  0  0  0  0  0
   36.9687   44.8819   -9.1012 N   0  0  0  0  0  0  0  0  0  0  0  0
   36.9163   42.5832   -3.7146 C   0  0  1  0  0  0  0  0  0  0  0  0
   35.7118   40.4392   -0.3027 C   0  0  1  0  0  0  0  0  0  0  0  0
   39.4534   38.9566   -5.8942 C   0  0  2  0  0  0  0  0  0  0  0  0
   38.4823   38.0555   -6.5313 N   0  0  0  0  0  0  0  0  0  0  0  0
   36.2652   42.6250   -8.3883 C   0  0  0  0  0  0  0  0  0  0  0  0
   37.1094   42.9334   -2.2384 C   0  0  2  0  0  0  0  0  0  0  0  0
   38.2049   42.1908   -1.6997 O   0  0  0  0  0  0  0  0  0  0  0  0
   35.8395   38.9123   -0.3056 C   0  0  2  0  0  0  0  0  0  0  0  0
   34.8535   38.3685   -1.2497 N   0  0  0  0  0  0  0  0  0  0  0  0
   39.5838   38.5855   -4.4149 C   0  0  1  0  0  0  0  0  0  0  0  0
   40.1266   37.2660   -4.3062 O   0  0  0  0  0  0  0  0  0  0  0  0
   36.7584   41.4155   -7.5870 C   0  0  2  0  0  0  0  0  0  0  0  0
   35.7543   40.3432   -7.6574 N   0  0  0  0  0  0  0  0  0  0  0  0
   35.8076   42.3733   -1.6689 C   0  0  2  0  0  0  0  0  0  0  0  0
   35.8353   40.9367   -1.6467 O   0  0  0  0  0  0  0  0  0  0  0  0
   35.5651   38.3310    1.0875 C   0  0  1  0  0  0  0  0  0  0  0  0
   36.6342   38.6513    1.9816 O   0  0  0  0  0  0  0  0  0  0  0  0
   40.5096   39.5787   -3.7102 C   0  0  2  0  0  0  0  0  0  0  0  0
   40.5416   39.2946   -2.3090 O   0  0  0  0  0  0  0  0  0  0  0  0
   37.0313   41.7422   -6.1135 C   0  0  2  0  0  0  0  0  0  0  0  0
   34.8182   42.8466   -2.7221 C   0  0  2  0  0  0  0  0  0  0  0  0
   35.5402   42.9199   -3.9705 O   0  0  0  0  0  0  0  0  0  0  0  0
   34.2599   38.8809    1.6651 C   0  0  2  0  0  0  0  0  0  0  0  0
   33.1649   38.3759    0.8955 O   0  0  0  0  0  0  0  0  0  0  0  0
   39.9993   41.0028   -3.9355 C   0  0  2  0  0  0  0  0  0  0  0  0
   39.9298   41.2886   -5.3464 O   0  0  0  0  0  0  0  0  0  0  0  0
   37.8742   42.9969   -5.8949 C   0  0  2  0  0  0  0  0  0  0  0  0
   37.8235   43.3684   -4.5077 O   0  0  0  0  0  0  0  0  0  0  0  0
   34.2671   44.2176   -2.3243 C   0  0  0  0  0  0  0  0  0  0  0  0
   35.3401   45.1614   -2.2925 O   0  0  0  0  0  0  0  0  0  0  0  0
   34.2947   40.4103    1.6060 C   0  0  1  0  0  0  0  0  0  0  0  0
   34.4303   40.8092    0.2305 O   0  0  0  0  0  0  0  0  0  0  0  0
   40.9806   41.9607   -3.2552 C   0  0  0  0  0  0  0  0  0  0  0  0
   42.3614   41.5039   -3.4686 O   0  0  0  0  0  0  0  0  0  0  0  0
   37.3708   44.1542   -6.7657 C   0  0  1  0  0  0  0  0  0  0  0  0
   38.2261   45.2891   -6.6129 O   0  0  0  0  0  0  0  0  0  0  0  0
   33.0286   41.0411    2.1871 C   0  0  0  0  0  0  0  0  0  0  0  0
   33.0091   42.4741    1.8621 N   0  0  0  0  0  0  0  0  0  0  0  0
  1  2  1  1  0  0  0
  1  7  1  0  0  0  0
  1 30  1  0  0  0  0
  3  4  1  6  0  0  0
  3  9  1  0  0  0  0
  3 39  1  0  0  0  0
  5 10  1  0  0  0  0
  5 26  1  0  0  0  0
  5 32  1  6  0  0  0
  6 12  1  0  0  0  0
  6 36  1  0  0  0  0
  6 19  1  6  0  0  0
  7  8  1  1  0  0  0
  7 14  1  0  0  0  0
  9 16  1  0  0  0  0
 10 11  1  1  0  0  0
 10 18  1  0  0  0  0
 12 13  1  6  0  0  0
 12 20  1  0  0  0  0
 14 15  1  6  0  0  0
 14 22  1  0  0  0  0
 16 17  1  1  0  0  0
 16 24  1  0  0  0  0
 18 19  1  6  0  0  0
 18 25  1  0  0  0  0
 20 21  1  1  0  0  0
 20 27  1  0  0  0  0
 22 23  1  1  0  0  0
 22 29  1  0  0  0  0
 24  2  1  6  0  0  0
 24 31  1  0  0  0  0
 25 26  1  0  0  0  0
 25 33  1  1  0  0  0
 27 28  1  6  0  0  0
 27 35  1  0  0  0  0
 29 30  1  0  0  0  0
 29 37  1  1  0  0  0
 31 32  1  1  0  0  0
 31 39  1  0  0  0  0
 33 34  1  0  0  0  0
 35 36  1  0  0  0  0
 35 41  1  6  0  0  0
 37 38  1  0  0  0  0
 39 40  1  6  0  0  0
 41 42  1  0  0  0  0
M  END
>  <CHROM.1>
-158.28308415,171.60641369,-176.22194888,118.83928250,70.35783446,62.79575167
40.01391821,-5.92144581,-168.95290082,37.03898077,41.24259948,-3.26344148
-0.97458517,-0.67346090,2.23768214

>  <Name>
3c44_lig

>  <RI>
0

>  <Rbt.Current_Directory>
/home/itssahil/PROJECTS/Mol_Feturizer/New_Systems/rnas/3c44

>  <Rbt.Executable>
rbdock ($Id: //depot/dev/client3/rdock/2013.1/src/exe/rbdock.cxx#4 $)

>  <Rbt.Library>
libRbt.so (2013.1, Build901 2013/11/27)

>  <Rbt.Parameter_File>
/export/apps/rDock/src/rDock_2013.1_src/data/scripts/dock_solv.prm

>  <Rbt.Receptor>
prm/blind_docking_80.prm

>  <SCORE>
2.03996

>  <SCORE.INTER>
-10.8528

>  <SCORE.INTER.CONST>
1

>  <SCORE.INTER.POLAR>
-1.13705

>  <SCORE.INTER.ROT>
9

>  <SCORE.INTER.SOLV>
27.0983

>  <SCORE.INTER.VDW>
-22.0778

>  <SCORE.INTER.norm>
-0.258399

>  <SCORE.INTRA>
8.15922

>  <SCORE.INTRA.DIHEDRAL>
3.97724

>  <SCORE.INTRA.DIHEDRAL.0>
14.8538

>  <SCORE.INTRA.POLAR>
0

>  <SCORE.INTRA.POLAR.0>
0

>  <SCORE.INTRA.REPUL>
0.0213737

>  <SCORE.INTRA.REPUL.0>
0

>  <SCORE.INTRA.SOLV>
-2.37328

>  <SCORE.INTRA.SOLV.lig_0>
-100.951

>  <SCORE.INTRA.VDW>
7.25037

>  <SCORE.INTRA.VDW.0>
-5.71388

>  <SCORE.INTRA.norm>
0.194267

>  <SCORE.RESTR>
4.73351

>  <SCORE.RESTR.CAVITY>
4.73351

>  <SCORE.RESTR.norm>
0.112703

>  <SCORE.SYSTEM>
0

>  <SCORE.SYSTEM.CONST>
0

>  <SCORE.SYSTEM.DIHEDRAL>
0

>  <SCORE.SYSTEM.SOLV>
0

>  <SCORE.SYSTEM.norm>
0

>  <SCORE.heavy>
42

>  <SCORE.norm>
0.0485705

>  <RMSD>
12.822

$$$$
3c44_lig
 OpenBabel11021811463D
libRbt.so/2013.1/901 2013/11/27
 42 45  0  0  0  0  0  0  0  0999 V2000
   36.4343   39.7932   -6.3910 C   0  0  2  0  0  0  0  0  0  0  0  0
   36.3475   40.9962   -5.6119 O   0  0  0  0  0  0  0  0  0  0  0  0
   38.5328   44.0908   -7.2963 C   0  0  2  0  0  0  0  0  0  0  0  0
   39.1294   45.2344   -8.0036 N   0  0  0  0  0  0  0  0  0  0  0  0
   35.4930   42.9244   -3.5989 C   0  0  1  0  0  0  0  0  0  0  0  0
   35.6789   40.5204   -0.1017 C   0  0  1  0  0  0  0  0  0  0  0  0
   35.5768   38.7073   -5.7328 C   0  0  2  0  0  0  0  0  0  0  0  0
   34.1969   39.1754   -5.5383 N   0  0  0  0  0  0  0  0  0  0  0  0
   37.9618   43.0781   -8.2930 C   0  0  0  0  0  0  0  0  0  0  0  0
   36.5114   43.1883   -2.4888 C   0  0  2  0  0  0  0  0  0  0  0  0
   37.7066   42.4452   -2.7359 O   0  0  0  0  0  0  0  0  0  0  0  0
   36.0400   39.0339   -0.1908 C   0  0  2  0  0  0  0  0  0  0  0  0
   35.1980   38.4157   -1.2243 N   0  0  0  0  0  0  0  0  0  0  0  0
   36.1561   38.2840   -4.3806 C   0  0  1  0  0  0  0  0  0  0  0  0
   35.4174   37.1650   -3.8810 O   0  0  0  0  0  0  0  0  0  0  0  0
   37.5015   41.8509   -7.4991 C   0  0  2  0  0  0  0  0  0  0  0  0
   36.8895   40.8789   -8.4176 N   0  0  0  0  0  0  0  0  0  0  0  0
   35.7746   42.5575   -1.3089 C   0  0  2  0  0  0  0  0  0  0  0  0
   35.7918   41.1237   -1.4026 O   0  0  0  0  0  0  0  0  0  0  0  0
   35.7886   38.3219    1.1448 C   0  0  1  0  0  0  0  0  0  0  0  0
   36.7494   38.7358    2.1197 O   0  0  0  0  0  0  0  0  0  0  0  0
   37.6261   37.8939   -4.5448 C   0  0  2  0  0  0  0  0  0  0  0  0
   38.1926   37.6053   -3.2639 O   0  0  0  0  0  0  0  0  0  0  0  0
   36.4921   42.1933   -6.3961 C   0  0  2  0  0  0  0  0  0  0  0  0
   34.3638   43.0667   -1.5589 C   0  0  2  0  0  0  0  0  0  0  0  0
   34.2282   43.2372   -2.9865 O   0  0  0  0  0  0  0  0  0  0  0  0
   34.3869   38.6278    1.6754 C   0  0  2  0  0  0  0  0  0  0  0  0
   33.4228   38.0193    0.8116 O   0  0  0  0  0  0  0  0  0  0  0  0
   38.3914   39.0453   -5.1988 C   0  0  2  0  0  0  0  0  0  0  0  0
   37.8073   39.3684   -6.4762 O   0  0  0  0  0  0  0  0  0  0  0  0
   36.9052   43.3667   -5.5101 C   0  0  2  0  0  0  0  0  0  0  0  0
   35.7816   43.7823   -4.7166 O   0  0  0  0  0  0  0  0  0  0  0  0
   34.1634   44.3944   -0.8252 C   0  0  0  0  0  0  0  0  0  0  0  0
   35.1082   45.3475   -1.3170 O   0  0  0  0  0  0  0  0  0  0  0  0
   34.1890   40.1455    1.7127 C   0  0  1  0  0  0  0  0  0  0  0  0
   34.3306   40.6555    0.3751 O   0  0  0  0  0  0  0  0  0  0  0  0
   39.8415   38.5920   -5.3861 C   0  0  0  0  0  0  0  0  0  0  0  0
   40.5079   38.4808   -4.0805 O   0  0  0  0  0  0  0  0  0  0  0  0
   37.4117   44.5408   -6.3562 C   0  0  1  0  0  0  0  0  0  0  0  0
   37.8756   45.5920   -5.5059 O   0  0  0  0  0  0  0  0  0  0  0  0
   32.8135   40.5368    2.2541 C   0  0  0  0  0  0  0  0  0  0  0  0
   32.6141   41.9811    2.0703 N   0  0  0  0  0  0  0  0  0  0  0  0
  1  2  1  1  0  0  0
  1  7  1  0  0  0  0
  1 30  1  0  0  0  0
  3  4  1  6  0  0  0
  3  9  1  0  0  0  0
  3 39  1  0  0  0  0
  5 10  1  0  0  0  0
  5 26  1  0  0  0  0
  5 32  1  6  0  0  0
  6 12  1  0  0  0  0
  6 36  1  0  0  0  0
  6 19  1  6  0  0  0
  7  8  1  1  0  0  0
  7 14  1  0  0  0  0
  9 16  1  0  0  0  0
 10 11  1  6  0  0  0
 10 18  1  0  0  0  0
 12 13  1  6  0  0  0
 12 20  1  0  0  0  0
 14 15  1  6  0  0  0
 14 22  1  0  0  0  0
 16 17  1  6  0  0  0
 16 24  1  0  0  0  0
 18 19  1  6  0  0  0
 18 25  1  0  0  0  0
 20 21  1  1  0  0  0
 20 27  1  0  0  0  0
 22 23  1  1  0  0  0
 22 29  1  0  0  0  0
 24  2  1  1  0  0  0
 24 31  1  0  0  0  0
 25 26  1  0  0  0  0
 25 33  1  1  0  0  0
 27 28  1  6  0  0  0
 27 35  1  0  0  0  0
 29 30  1  0  0  0  0
 29 37  1  6  0  0  0
 31 32  1  6  0  0  0
 31 39  1  0  0  0  0
 33 34  1  0  0  0  0
 35 36  1  0  0  0  0
 35 41  1  6  0  0  0
 37 38  1  0  0  0  0
 39 40  1  1  0  0  0
 41 42  1  0  0  0  0
M  END
>  <CHROM.1>
-149.91020710,76.18414062,-166.26845037,153.70231690,-34.91814056,60.23289678
-69.46542671,76.63760845,-171.39527754,36.22761999,41.01995309,-3.21303786
-0.61513617,-1.09221078,2.76817074

>  <Name>
3c44_lig

>  <RI>
224

>  <Rbt.Current_Directory>
/home/itssahil/PROJECTS/Mol_Feturizer/New_Systems/rnas/3c44

>  <Rbt.Executable>
rbdock ($Id: //depot/dev/client3/rdock/2013.1/src/exe/rbdock.cxx#4 $)

>  <Rbt.Library>
libRbt.so (2013.1, Build901 2013/11/27)

>  <Rbt.Parameter_File>
/export/apps/rDock/src/rDock_2013.1_src/data/scripts/dock_solv.prm

>  <Rbt.Receptor>
prm/blind_docking_60.prm

>  <SCORE>
4.27531

>  <SCORE.INTER>
-13.2621

>  <SCORE.INTER.CONST>
1

>  <SCORE.INTER.POLAR>
-0.0879764

>  <SCORE.INTER.ROT>
9

>  <SCORE.INTER.SOLV>
26.3156

>  <SCORE.INTER.VDW>
-26.92

>  <SCORE.INTER.norm>
-0.315764

>  <SCORE.INTRA>
12.0979

>  <SCORE.INTRA.DIHEDRAL>
-1.51221

>  <SCORE.INTRA.DIHEDRAL.0>
14.8538

>  <SCORE.INTRA.POLAR>
0

>  <SCORE.INTRA.POLAR.0>
0

>  <SCORE.INTRA.REPUL>
0.179151

>  <SCORE.INTRA.REPUL.0>
0

>  <SCORE.INTRA.SOLV>
1.15924

>  <SCORE.INTRA.SOLV.lig_0>
-100.951

>  <SCORE.INTRA.VDW>
11.3786

>  <SCORE.INTRA.VDW.0>
-5.71388

>  <SCORE.INTRA.norm>
0.288044

>  <SCORE.RESTR>
5.43952

>  <SCORE.RESTR.CAVITY>
5.43952

>  <SCORE.RESTR.norm>
0.129512

>  <SCORE.SYSTEM>
0

>  <SCORE.SYSTEM.CONST>
0

>  <SCORE.SYSTEM.DIHEDRAL>
0

>  <SCORE.SYSTEM.SOLV>
0

>  <SCORE.SYSTEM.norm>
0

>  <SCORE.heavy>
42

>  <SCORE.norm>
0.101793

>  <RMSD>
12.830

$$$$
3c44_lig
 OpenBabel11021811463D
libRbt.so/2013.1/901 2013/11/27
 42 45  0  0  0  0  0  0  0  0999 V2000
   37.9148   46.3881   -5.7616 C   0  0  2  0  0  0  0  0  0  0  0  0
   37.4844   45.3216   -6.6213 O   0  0  0  0  0  0  0  0  0  0  0  0
   39.0702   42.5960   -9.3131 C   0  0  2  0  0  0  0  0  0  0  0  0
   39.8119   41.7470  -10.2581 N   0  0  0  0  0  0  0  0  0  0  0  0
   39.4464   42.0799   -4.9150 C   0  0  1  0  0  0  0  0  0  0  0  0
   38.6470   39.4214   -4.0346 C   0  0  1  0  0  0  0  0  0  0  0  0
   36.7471   46.8097   -4.8634 C   0  0  2  0  0  0  0  0  0  0  0  0
   36.2061   45.6555   -4.1313 N   0  0  0  0  0  0  0  0  0  0  0  0
   39.0604   44.0517   -9.7886 C   0  0  0  0  0  0  0  0  0  0  0  0
   40.8787   41.6896   -4.5471 C   0  0  2  0  0  0  0  0  0  0  0  0
   41.5077   41.0410   -5.6541 O   0  0  0  0  0  0  0  0  0  0  0  0
   38.1479   37.9754   -3.9465 C   0  0  2  0  0  0  0  0  0  0  0  0
   38.7578   37.2092   -5.0420 N   0  0  0  0  0  0  0  0  0  0  0  0
   35.6237   47.4562   -5.6777 C   0  0  1  0  0  0  0  0  0  0  0  0
   34.6325   47.9738   -4.7850 O   0  0  0  0  0  0  0  0  0  0  0  0
   38.1462   44.8436   -8.8478 C   0  0  2  0  0  0  0  0  0  0  0  0
   38.1595   46.2620   -9.2365 N   0  0  0  0  0  0  0  0  0  0  0  0
   40.5920   40.6500   -3.4655 C   0  0  2  0  0  0  0  0  0  0  0  0
   40.0853   39.4362   -4.0442 O   0  0  0  0  0  0  0  0  0  0  0  0
   36.6213   37.9071   -4.0837 C   0  0  1  0  0  0  0  0  0  0  0  0
   35.9909   38.4414   -2.9167 O   0  0  0  0  0  0  0  0  0  0  0  0
   36.1888   48.5944   -6.5295 C   0  0  2  0  0  0  0  0  0  0  0  0
   35.1591   49.1228   -7.3694 O   0  0  0  0  0  0  0  0  0  0  0  0
   38.5576   44.7302   -7.3746 C   0  0  2  0  0  0  0  0  0  0  0  0
   39.4818   41.3489   -2.6967 C   0  0  2  0  0  0  0  0  0  0  0  0
   38.7813   42.1855   -3.6426 O   0  0  0  0  0  0  0  0  0  0  0  0
   36.1434   38.6947   -5.3047 C   0  0  2  0  0  0  0  0  0  0  0  0
   36.5927   38.0295   -6.4886 O   0  0  0  0  0  0  0  0  0  0  0  0
   37.3368   48.0673   -7.3917 C   0  0  2  0  0  0  0  0  0  0  0  0
   38.3659   47.5004   -6.5568 O   0  0  0  0  0  0  0  0  0  0  0  0
   38.8171   43.3006   -6.9040 C   0  0  2  0  0  0  0  0  0  0  0  0
   39.4662   43.3319   -5.6225 O   0  0  0  0  0  0  0  0  0  0  0  0
   40.0908   42.1850   -1.5690 C   0  0  0  0  0  0  0  0  0  0  0  0
   39.0493   42.6089   -0.6866 O   0  0  0  0  0  0  0  0  0  0  0  0
   36.7166   40.1128   -5.2379 C   0  0  1  0  0  0  0  0  0  0  0  0
   38.1523   40.0235   -5.2414 O   0  0  0  0  0  0  0  0  0  0  0  0
   37.8997   49.2477   -8.1874 C   0  0  0  0  0  0  0  0  0  0  0  0
   36.8722   49.7813   -9.0932 O   0  0  0  0  0  0  0  0  0  0  0  0
   39.6864   42.5406   -7.9129 C   0  0  1  0  0  0  0  0  0  0  0  0
   39.8423   41.1817   -7.4981 O   0  0  0  0  0  0  0  0  0  0  0  0
   36.2663   40.9754   -6.4175 C   0  0  0  0  0  0  0  0  0  0  0  0
   34.8181   41.2064   -6.3229 N   0  0  0  0  0  0  0  0  0  0  0  0
  1  2  1  6  0  0  0
  1  7  1  0  0  0  0
  1 30  1  0  0  0  0
  3  4  1  6  0  0  0
  3  9  1  0  0  0  0
  3 39  1  0  0  0  0
  5 10  1  0  0  0  0
  5 26  1  0  0  0  0
  5 32  1  1  0  0  0
  6 12  1  0  0  0  0
  6 36  1  0  0  0  0
  6 19  1  6  0  0  0
  7  8  1  6  0  0  0
  7 14  1  0  0  0  0
  9 16  1  0  0  0  0
 10 11  1  6  0  0  0
 10 18  1  0  0  0  0
 12 13  1  6  0  0  0
 12 20  1  0  0  0  0
 14 15  1  1  0  0  0
 14 22  1  0  0  0  0
 16 17  1  6  0  0  0
 16 24  1  0  0  0  0
 18 19  1  6  0  0  0
 18 25  1  0  0  0  0
 20 21  1  1  0  0  0
 20 27  1  0  0  0  0
 22 23  1  6  0  0  0
 22 29  1  0  0  0  0
 24  2  1  1  0  0  0
 24 31  1  0  0  0  0
 25 26  1  0  0  0  0
 25 33  1  1  0  0  0
 27 28  1  6  0  0  0
 27 35  1  0  0  0  0
 29 30  1  0  0  0  0
 29 37  1  1  0  0  0
 31 32  1  1  0  0  0
 31 39  1  0  0  0  0
 33 34  1  0  0  0  0
 35 36  1  0  0  0  0
 35 41  1  6  0  0  0
 37 38  1  0  0  0  0
 39 40  1  1  0  0  0
 41 42  1  0  0  0  0
M  END
>  <CHROM.1>
-171.91124939,125.25644682,-150.91443320,-94.72239363,-123.89541572,-167.98652414
-62.98979320,164.32481647,66.74080793,38.03800260,43.10373216,-5.84161898
2.05065103,1.21416038,-0.78855565

>  <Name>
3c44_lig

>  <RI>
0

>  <Rbt.Current_Directory>
/home/itssahil/PROJECTS/Mol_Feturizer/New_Systems/rnas/3c44

>  <Rbt.Executable>
rbdock ($Id: //depot/dev/client3/rdock/2013.1/src/exe/rbdock.cxx#4 $)

>  <Rbt.Library>
libRbt.so (2013.1, Build901 2013/11/27)

>  <Rbt.Parameter_File>
/export/apps/rDock/src/rDock_2013.1_src/data/scripts/dock_solv.prm

>  <Rbt.Receptor>
prm/blind_docking_100.prm

>  <SCORE>
3.536

>  <SCORE.INTER>
-19.9056

>  <SCORE.INTER.CONST>
1

>  <SCORE.INTER.POLAR>
-2.72778

>  <SCORE.INTER.ROT>
9

>  <SCORE.INTER.SOLV>
26.2484

>  <SCORE.INTER.VDW>
-22.5273

>  <SCORE.INTER.norm>
-0.473943

>  <SCORE.INTRA>
15.8546

>  <SCORE.INTRA.DIHEDRAL>
9.19343

>  <SCORE.INTRA.DIHEDRAL.0>
14.8538

>  <SCORE.INTRA.POLAR>
0

>  <SCORE.INTRA.POLAR.0>
0

>  <SCORE.INTRA.REPUL>
0.0347115

>  <SCORE.INTRA.REPUL.0>
0

>  <SCORE.INTRA.SOLV>
0.174791

>  <SCORE.INTRA.SOLV.lig_0>
-100.951

>  <SCORE.INTRA.VDW>
10.9969

>  <SCORE.INTRA.VDW.0>
-5.71388

>  <SCORE.INTRA.norm>
0.37749

>  <SCORE.RESTR>
7.587

>  <SCORE.RESTR.CAVITY>
7.587

>  <SCORE.RESTR.norm>
0.180643

>  <SCORE.SYSTEM>
0

>  <SCORE.SYSTEM.CONST>
0

>  <SCORE.SYSTEM.DIHEDRAL>
0

>  <SCORE.SYSTEM.SOLV>
0

>  <SCORE.SYSTEM.norm>
0

>  <SCORE.heavy>
42

>  <SCORE.norm>
0.0841905

>  <RMSD>
12.840

$$$$
3c44_lig
 OpenBabel11021811463D
libRbt.so/2013.1/901 2013/11/27
 42 45  0  0  0  0  0  0  0  0999 V2000
   36.1368   44.2120   -2.8744 C   0  0  2  0  0  0  0  0  0  0  0  0
   35.9014   45.2370   -3.8520 O   0  0  0  0  0  0  0  0  0  0  0  0
   37.9200   44.9664   -7.4633 C   0  0  2  0  0  0  0  0  0  0  0  0
   38.7779   45.0061   -8.6576 N   0  0  0  0  0  0  0  0  0  0  0  0
   38.6938   42.2270   -4.0063 C   0  0  1  0  0  0  0  0  0  0  0  0
   39.2798   39.9694   -5.1740 C   0  0  1  0  0  0  0  0  0  0  0  0
   34.9247   43.2756   -2.8287 C   0  0  2  0  0  0  0  0  0  0  0  0
   34.6219   42.7449   -4.1657 N   0  0  0  0  0  0  0  0  0  0  0  0
   37.4869   46.3796   -7.0628 C   0  0  0  0  0  0  0  0  0  0  0  0
   39.6927   41.8742   -2.9032 C   0  0  2  0  0  0  0  0  0  0  0  0
   41.0243   42.1430   -3.3461 O   0  0  0  0  0  0  0  0  0  0  0  0
   38.2636   38.8375   -5.3583 C   0  0  2  0  0  0  0  0  0  0  0  0
   38.9913   37.5610   -5.3676 N   0  0  0  0  0  0  0  0  0  0  0  0
   33.6872   43.9932   -2.2838 C   0  0  1  0  0  0  0  0  0  0  0  0
   32.6303   43.0443   -2.1110 O   0  0  0  0  0  0  0  0  0  0  0  0
   36.4779   46.2511   -5.9167 C   0  0  2  0  0  0  0  0  0  0  0  0
   36.0841   47.5933   -5.4625 N   0  0  0  0  0  0  0  0  0  0  0  0
   39.4888   40.3615   -2.8461 C   0  0  2  0  0  0  0  0  0  0  0  0
   40.0681   39.7236   -3.9961 O   0  0  0  0  0  0  0  0  0  0  0  0
   37.5046   38.9852   -6.6836 C   0  0  1  0  0  0  0  0  0  0  0  0
   36.6060   40.0959   -6.6231 O   0  0  0  0  0  0  0  0  0  0  0  0
   34.0147   44.6441   -0.9388 C   0  0  2  0  0  0  0  0  0  0  0  0
   32.8910   45.4044   -0.4867 O   0  0  0  0  0  0  0  0  0  0  0  0
   37.0259   45.4643   -4.7196 C   0  0  2  0  0  0  0  0  0  0  0  0
   37.9726   40.2829   -2.9306 C   0  0  2  0  0  0  0  0  0  0  0  0
   37.5365   41.4316   -3.6893 O   0  0  0  0  0  0  0  0  0  0  0  0
   38.4712   39.1979   -7.8498 C   0  0  2  0  0  0  0  0  0  0  0  0
   39.2219   37.9974   -8.0527 O   0  0  0  0  0  0  0  0  0  0  0  0
   35.2279   45.5621   -1.0962 C   0  0  2  0  0  0  0  0  0  0  0  0
   36.3580   44.8131   -1.5849 O   0  0  0  0  0  0  0  0  0  0  0  0
   37.6916   44.1407   -5.0905 C   0  0  2  0  0  0  0  0  0  0  0  0
   38.4139   43.6368   -3.9551 O   0  0  0  0  0  0  0  0  0  0  0  0
   37.3817   40.2995   -1.5192 C   0  0  0  0  0  0  0  0  0  0  0  0
   35.9852   40.5929   -1.6006 O   0  0  0  0  0  0  0  0  0  0  0  0
   39.4062   40.3632   -7.5152 C   0  0  1  0  0  0  0  0  0  0  0  0
   40.1394   40.0299   -6.3232 O   0  0  0  0  0  0  0  0  0  0  0  0
   35.5462   46.1511    0.2804 C   0  0  0  0  0  0  0  0  0  0  0  0
   34.7369   47.3561    0.5130 O   0  0  0  0  0  0  0  0  0  0  0  0
   38.6433   44.3199   -6.2792 C   0  0  1  0  0  0  0  0  0  0  0  0
   39.1862   43.0555   -6.6659 O   0  0  0  0  0  0  0  0  0  0  0  0
   40.3944   40.6553   -8.6450 C   0  0  0  0  0  0  0  0  0  0  0  0
   41.1556   41.8696   -8.3201 N   0  0  0  0  0  0  0  0  0  0  0  0
  1  2  1  6  0  0  0
  1  7  1  0  0  0  0
  1 30  1  0  0  0  0
  3  4  1  6  0  0  0
  3  9  1  0  0  0  0
  3 39  1  0  0  0  0
  5 10  1  0  0  0  0
  5 26  1  0  0  0  0
  5 32  1  1  0  0  0
  6 12  1  0  0  0  0
  6 36  1  0  0  0  0
  6 19  1  1  0  0  0
  7  8  1  6  0  0  0
  7 14  1  0  0  0  0
  9 16  1  0  0  0  0
 10 11  1  6  0  0  0
 10 18  1  0  0  0  0
 12 13  1  6  0  0  0
 12 20  1  0  0  0  0
 14 15  1  1  0  0  0
 14 22  1  0  0  0  0
 16 17  1  1  0  0  0
 16 24  1  0  0  0  0
 18 19  1  6  0  0  0
 18 25  1  0  0  0  0
 20 21  1  1  0  0  0
 20 27  1  0  0  0  0
 22 23  1  6  0  0  0
 22 29  1  0  0  0  0
 24  2  1  1  0  0  0
 24 31  1  0  0  0  0
 25 26  1  0  0  0  0
 25 33  1  1  0  0  0
 27 28  1  1  0  0  0
 27 35  1  0  0  0  0
 29 30  1  0  0  0  0
 29 37  1  1  0  0  0
 31 32  1  1  0  0  0
 31 39  1  0  0  0  0
 33 34  1  0  0  0  0
 35 36  1  0  0  0  0
 35 41  1  6  0  0  0
 37 38  1  0  0  0  0
 39 40  1  6  0  0  0
 41 42  1  0  0  0  0
M  END
>  <CHROM.1>
-134.07089509,168.72172617,-92.37903416,-73.05163523,163.74175182,164.30758948
-85.83176226,159.75342829,173.84534945,37.41070967,42.65452631,-4.38058100
2.88034542,0.98252605,-0.49944919

>  <Name>
3c44_lig

>  <RI>
0

>  <Rbt.Current_Directory>
/home/itssahil/PROJECTS/Mol_Feturizer/New_Systems/rnas/3c44

>  <Rbt.Executable>
rbdock ($Id: //depot/dev/client3/rdock/2013.1/src/exe/rbdock.cxx#4 $)

>  <Rbt.Library>
libRbt.so (2013.1, Build901 2013/11/27)

>  <Rbt.Parameter_File>
/export/apps/rDock/src/rDock_2013.1_src/data/scripts/dock_solv.prm

>  <Rbt.Receptor>
prm/blind_docking_100.prm

>  <SCORE>
2.83606

>  <SCORE.INTER>
-13.6592

>  <SCORE.INTER.CONST>
1

>  <SCORE.INTER.POLAR>
-1.63638

>  <SCORE.INTER.ROT>
9

>  <SCORE.INTER.SOLV>
25.9764

>  <SCORE.INTER.VDW>
-21.9103

>  <SCORE.INTER.norm>
-0.32522

>  <SCORE.INTRA>
13.087

>  <SCORE.INTRA.DIHEDRAL>
3.3853

>  <SCORE.INTRA.DIHEDRAL.0>
14.8538

>  <SCORE.INTRA.POLAR>
0

>  <SCORE.INTRA.POLAR.0>
0

>  <SCORE.INTRA.REPUL>
0.137602

>  <SCORE.INTRA.REPUL.0>
0

>  <SCORE.INTRA.SOLV>
1.79758

>  <SCORE.INTRA.SOLV.lig_0>
-100.951

>  <SCORE.INTRA.VDW>
9.80755

>  <SCORE.INTRA.VDW.0>
-5.71388

>  <SCORE.INTRA.norm>
0.311595

>  <SCORE.RESTR>
3.40828

>  <SCORE.RESTR.CAVITY>
3.40828

>  <SCORE.RESTR.norm>
0.0811495

>  <SCORE.SYSTEM>
0

>  <SCORE.SYSTEM.CONST>
0

>  <SCORE.SYSTEM.DIHEDRAL>
0

>  <SCORE.SYSTEM.SOLV>
0

>  <SCORE.SYSTEM.norm>
0

>  <SCORE.heavy>
42

>  <SCORE.norm>
0.0675252

>  <RMSD>
12.847

$$$$
3c44_lig
 OpenBabel11021811463D
libRbt.so/2013.1/901 2013/11/27
 42 45  0  0  0  0  0  0  0  0999 V2000
   36.4691   40.1680   -6.4540 C   0  0  2  0  0  0  0  0  0  0  0  0
   36.3399   41.3927   -5.7155 O   0  0  0  0  0  0  0  0  0  0  0  0
   39.7005   42.8158   -7.6827 C   0  0  2  0  0  0  0  0  0  0  0  0
   40.8046   43.5151   -8.3579 N   0  0  0  0  0  0  0  0  0  0  0  0
   37.4917   42.0512   -3.3329 C   0  0  1  0  0  0  0  0  0  0  0  0
   36.1117   39.7256   -0.0648 C   0  0  1  0  0  0  0  0  0  0  0  0
   35.5204   39.1220   -5.8591 C   0  0  2  0  0  0  0  0  0  0  0  0
   34.1419   39.6305   -5.8138 N   0  0  0  0  0  0  0  0  0  0  0  0
   38.3644   43.1386   -8.3577 C   0  0  0  0  0  0  0  0  0  0  0  0
   37.8284   42.2308   -1.8519 C   0  0  2  0  0  0  0  0  0  0  0  0
   38.8747   41.3329   -1.4767 O   0  0  0  0  0  0  0  0  0  0  0  0
   35.6553   38.2763   -0.2622 C   0  0  2  0  0  0  0  0  0  0  0  0
   34.5243   38.2725   -1.2003 N   0  0  0  0  0  0  0  0  0  0  0  0
   35.9511   38.7191   -4.4465 C   0  0  1  0  0  0  0  0  0  0  0  0
   35.1354   37.6330   -3.9970 O   0  0  0  0  0  0  0  0  0  0  0  0
   37.2893   42.2616   -7.7073 C   0  0  2  0  0  0  0  0  0  0  0  0
   35.9782   42.5879   -8.2885 N   0  0  0  0  0  0  0  0  0  0  0  0
   36.5193   41.7484   -1.2304 C   0  0  2  0  0  0  0  0  0  0  0  0
   36.3950   40.3212   -1.3431 O   0  0  0  0  0  0  0  0  0  0  0  0
   35.2013   37.6531    1.0643 C   0  0  1  0  0  0  0  0  0  0  0  0
   36.3245   37.4278    1.9202 O   0  0  0  0  0  0  0  0  0  0  0  0
   37.4186   38.2870   -4.4547 C   0  0  2  0  0  0  0  0  0  0  0  0
   37.8474   38.0173   -3.1175 O   0  0  0  0  0  0  0  0  0  0  0  0
   37.2130   42.4347   -6.1852 C   0  0  2  0  0  0  0  0  0  0  0  0
   35.5118   42.4207   -2.1498 C   0  0  2  0  0  0  0  0  0  0  0  0
   36.1445   42.5468   -3.4417 O   0  0  0  0  0  0  0  0  0  0  0  0
   34.2071   38.5633    1.7874 C   0  0  2  0  0  0  0  0  0  0  0  0
   32.9922   38.6115    1.0338 O   0  0  0  0  0  0  0  0  0  0  0  0
   38.2769   39.4010   -5.0560 C   0  0  2  0  0  0  0  0  0  0  0  0
   37.8313   39.7057   -6.3923 O   0  0  0  0  0  0  0  0  0  0  0  0
   38.5641   42.3603   -5.4770 C   0  0  2  0  0  0  0  0  0  0  0  0
   38.4173   42.8180   -4.1229 O   0  0  0  0  0  0  0  0  0  0  0  0
   35.1408   43.7928   -1.5830 C   0  0  0  0  0  0  0  0  0  0  0  0
   34.1136   44.3704   -2.3919 O   0  0  0  0  0  0  0  0  0  0  0  0
   34.8143   39.9631    1.9132 C   0  0  1  0  0  0  0  0  0  0  0  0
   35.0712   40.4678    0.5909 O   0  0  0  0  0  0  0  0  0  0  0  0
   39.7251   38.9056   -5.0876 C   0  0  0  0  0  0  0  0  0  0  0  0
   40.5922   39.9205   -5.7033 O   0  0  0  0  0  0  0  0  0  0  0  0
   39.6126   43.2090   -6.2059 C   0  0  1  0  0  0  0  0  0  0  0  0
   40.8881   43.0545   -5.5796 O   0  0  0  0  0  0  0  0  0  0  0  0
   33.8869   40.9325    2.6472 C   0  0  0  0  0  0  0  0  0  0  0  0
   32.8115   41.3544    1.7389 N   0  0  0  0  0  0  0  0  0  0  0  0
  1  2  1  1  0  0  0
  1  7  1  0  0  0  0
  1 30  1  0  0  0  0
  3  4  1  6  0  0  0
  3  9  1  0  0  0  0
  3 39  1  0  0  0  0
  5 10  1  0  0  0  0
  5 26  1  0  0  0  0
  5 32  1  6  0  0  0
  6 12  1  0  0  0  0
  6 36  1  0  0  0  0
  6 19  1  6  0  0  0
  7  8  1  1  0  0  0
  7 14  1  0  0  0  0
  9 16  1  0  0  0  0
 10 11  1  1  0  0  0
 10 18  1  0  0  0  0
 12 13  1  6  0  0  0
 12 20  1  0  0  0  0
 14 15  1  6  0  0  0
 14 22  1  0  0  0  0
 16 17  1  6  0  0  0
 16 24  1  0  0  0  0
 18 19  1  6  0  0  0
 18 25  1  0  0  0  0
 20 21  1  1  0  0  0
 20 27  1  0  0  0  0
 22 23  1  1  0  0  0
 22 29  1  0  0  0  0
 24  2  1  1  0  0  0
 24 31  1  0  0  0  0
 25 26  1  0  0  0  0
 25 33  1  1  0  0  0
 27 28  1  6  0  0  0
 27 35  1  0  0  0  0
 29 30  1  0  0  0  0
 29 37  1  6  0  0  0
 31 32  1  1  0  0  0
 31 39  1  0  0  0  0
 33 34  1  0  0  0  0
 35 36  1  0  0  0  0
 35 41  1  6  0  0  0
 37 38  1  0  0  0  0
 39 40  1  1  0  0  0
 41 42  1  0  0  0  0
M  END
>  <CHROM.1>
178.92760247,157.02562660,166.45585250,127.70761383,35.57750982,-175.27672850
177.95267218,60.31186049,-76.55953448,36.71424751,40.73725900,-3.25561762
-0.32530960,-1.08312909,3.09473222

>  <Name>
3c44_lig

>  <RI>
0

>  <Rbt.Current_Directory>
/home/itssahil/PROJECTS/Mol_Feturizer/New_Systems/rnas/3c44

>  <Rbt.Executable>
rbdock ($Id: //depot/dev/client3/rdock/2013.1/src/exe/rbdock.cxx#4 $)

>  <Rbt.Library>
libRbt.so (2013.1, Build901 2013/11/27)

>  <Rbt.Parameter_File>
/export/apps/rDock/src/rDock_2013.1_src/data/scripts/dock_solv.prm

>  <Rbt.Receptor>
prm/blind_docking_80.prm

>  <SCORE>
-7.13638

>  <SCORE.INTER>
-13.9957

>  <SCORE.INTER.CONST>
1

>  <SCORE.INTER.POLAR>
-0.758426

>  <SCORE.INTER.ROT>
9

>  <SCORE.INTER.SOLV>
25.7913

>  <SCORE.INTER.VDW>
-24.9995

>  <SCORE.INTER.norm>
-0.33323

>  <SCORE.INTRA>
4.10111

>  <SCORE.INTRA.DIHEDRAL>
-1.38775

>  <SCORE.INTRA.DIHEDRAL.0>
14.8538

>  <SCORE.INTRA.POLAR>
0

>  <SCORE.INTRA.POLAR.0>
0

>  <SCORE.INTRA.REPUL>
0.0608104

>  <SCORE.INTRA.REPUL.0>
0

>  <SCORE.INTRA.SOLV>
1.16641

>  <SCORE.INTRA.SOLV.lig_0>
-100.951

>  <SCORE.INTRA.VDW>
3.90772

>  <SCORE.INTRA.VDW.0>
-5.71388

>  <SCORE.INTRA.norm>
0.0976454

>  <SCORE.RESTR>
2.75817

>  <SCORE.RESTR.CAVITY>
2.75817

>  <SCORE.RESTR.norm>
0.0656706

>  <SCORE.SYSTEM>
0

>  <SCORE.SYSTEM.CONST>
0

>  <SCORE.SYSTEM.DIHEDRAL>
0

>  <SCORE.SYSTEM.SOLV>
0

>  <SCORE.SYSTEM.norm>
0

>  <SCORE.heavy>
42

>  <SCORE.norm>
-0.169914

>  <RMSD>
12.863

$$$$
3c44_lig
 OpenBabel11021811463D
libRbt.so/2013.1/901 2013/11/27
 42 45  0  0  0  0  0  0  0  0999 V2000
   36.6304   40.5011   -6.7902 C   0  0  2  0  0  0  0  0  0  0  0  0
   36.5445   41.7408   -6.0706 O   0  0  0  0  0  0  0  0  0  0  0  0
   40.4249   42.6188   -7.2373 C   0  0  2  0  0  0  0  0  0  0  0  0
   41.7376   43.1352   -7.6544 N   0  0  0  0  0  0  0  0  0  0  0  0
   37.2869   42.2913   -3.4393 C   0  0  1  0  0  0  0  0  0  0  0  0
   35.7082   40.2727   -0.2311 C   0  0  1  0  0  0  0  0  0  0  0  0
   35.5974   39.5210   -6.2244 C   0  0  2  0  0  0  0  0  0  0  0  0
   34.2510   40.1108   -6.2419 N   0  0  0  0  0  0  0  0  0  0  0  0
   39.3332   43.0696   -8.2121 C   0  0  0  0  0  0  0  0  0  0  0  0
   37.2793   42.6324   -1.9484 C   0  0  2  0  0  0  0  0  0  0  0  0
   38.1995   41.7911   -1.2504 O   0  0  0  0  0  0  0  0  0  0  0  0
   35.8286   38.7453   -0.2464 C   0  0  2  0  0  0  0  0  0  0  0  0
   34.7772   38.2082   -1.1212 N   0  0  0  0  0  0  0  0  0  0  0  0
   35.9451   39.1116   -4.7910 C   0  0  1  0  0  0  0  0  0  0  0  0
   35.0482   38.0816   -4.3644 O   0  0  0  0  0  0  0  0  0  0  0  0
   38.0300   42.3721   -7.8080 C   0  0  2  0  0  0  0  0  0  0  0  0
   36.9417   42.8284   -8.6857 N   0  0  0  0  0  0  0  0  0  0  0  0
   35.8562   42.2056   -1.5944 C   0  0  2  0  0  0  0  0  0  0  0  0
   35.7406   40.7732   -1.5792 O   0  0  0  0  0  0  0  0  0  0  0  0
   35.6487   38.1614    1.1610 C   0  0  1  0  0  0  0  0  0  0  0  0
   36.7785   38.4748    1.9797 O   0  0  0  0  0  0  0  0  0  0  0  0
   37.3832   38.5933   -4.7336 C   0  0  2  0  0  0  0  0  0  0  0  0
   37.7401   38.3159   -3.3768 O   0  0  0  0  0  0  0  0  0  0  0  0
   37.6342   42.6371   -6.3500 C   0  0  2  0  0  0  0  0  0  0  0  0
   35.0947   42.7646   -2.7860 C   0  0  2  0  0  0  0  0  0  0  0  0
   36.0072   42.7580   -3.9052 O   0  0  0  0  0  0  0  0  0  0  0  0
   34.3890   38.7154    1.8289 C   0  0  2  0  0  0  0  0  0  0  0  0
   33.2412   38.2172    1.1358 O   0  0  0  0  0  0  0  0  0  0  0  0
   38.3305   39.6465   -5.3103 C   0  0  2  0  0  0  0  0  0  0  0  0
   37.9589   39.9598   -6.6671 O   0  0  0  0  0  0  0  0  0  0  0  0
   38.7663   42.4322   -5.3456 C   0  0  2  0  0  0  0  0  0  0  0  0
   38.3791   42.9787   -4.0743 O   0  0  0  0  0  0  0  0  0  0  0  0
   34.6237   44.1856   -2.4689 C   0  0  0  0  0  0  0  0  0  0  0  0
   35.7309   45.0819   -2.5857 O   0  0  0  0  0  0  0  0  0  0  0  0
   34.4265   40.2448    1.7711 C   0  0  1  0  0  0  0  0  0  0  0  0
   34.4683   40.6467    0.3905 O   0  0  0  0  0  0  0  0  0  0  0  0
   39.7465   39.0658   -5.2763 C   0  0  0  0  0  0  0  0  0  0  0  0
   40.7004   40.0286   -5.8454 O   0  0  0  0  0  0  0  0  0  0  0  0
   40.0579   43.1007   -5.8315 C   0  0  1  0  0  0  0  0  0  0  0  0
   41.1249   42.8216   -4.9222 O   0  0  0  0  0  0  0  0  0  0  0  0
   33.2065   40.8795    2.4399 C   0  0  0  0  0  0  0  0  0  0  0  0
   32.0730   40.8512    1.5052 N   0  0  0  0  0  0  0  0  0  0  0  0
  1  2  1  1  0  0  0
  1  7  1  0  0  0  0
  1 30  1  0  0  0  0
  3  4  1  6  0  0  0
  3  9  1  0  0  0  0
  3 39  1  0  0  0  0
  5 10  1  0  0  0  0
  5 26  1  0  0  0  0
  5 32  1  6  0  0  0
  6 12  1  0  0  0  0
  6 36  1  0  0  0  0
  6 19  1  6  0  0  0
  7  8  1  1  0  0  0
  7 14  1  0  0  0  0
  9 16  1  0  0  0  0
 10 11  1  1  0  0  0
 10 18  1  0  0  0  0
 12 13  1  6  0  0  0
 12 20  1  0  0  0  0
 14 15  1  6  0  0  0
 14 22  1  0  0  0  0
 16 17  1  6  0  0  0
 16 24  1  0  0  0  0
 18 19  1  6  0  0  0
 18 25  1  0  0  0  0
 20 21  1  1  0  0  0
 20 27  1  0  0  0  0
 22 23  1  1  0  0  0
 22 29  1  0  0  0  0
 24  2  1  1  0  0  0
 24 31  1  0  0  0  0
 25 26  1  0  0  0  0
 25 33  1  1  0  0  0
 27 28  1  6  0  0  0
 27 35  1  0  0  0  0
 29 30  1  0  0  0  0
 29 37  1  6  0  0  0
 31 32  1  1  0  0  0
 31 39  1  0  0  0  0
 33 34  1  0  0  0  0
 35 36  1  0  0  0  0
 35 41  1  6  0  0  0
 37 38  1  0  0  0  0
 39 40  1  1  0  0  0
 41 42  1  0  0  0  0
M  END
>  <CHROM.1>
168.90096788,160.94504450,-170.30531725,103.78384335,32.10749622,76.87637967
178.89652425,66.29914901,-80.87085893,36.78456898,40.96289093,-3.37527598
-0.18384728,-1.04013925,-3.06130919

>  <Name>
3c44_lig

>  <RI>
224

>  <Rbt.Current_Directory>
/home/itssahil/PROJECTS/Mol_Feturizer/New_Systems/rnas/3c44

>  <Rbt.Executable>
rbdock ($Id: //depot/dev/client3/rdock/2013.1/src/exe/rbdock.cxx#4 $)

>  <Rbt.Library>
libRbt.so (2013.1, Build901 2013/11/27)

>  <Rbt.Parameter_File>
/export/apps/rDock/src/rDock_2013.1_src/data/scripts/dock_solv.prm

>  <Rbt.Receptor>
prm/blind_docking_60.prm

>  <SCORE>
-3.79518

>  <SCORE.INTER>
-14.9883

>  <SCORE.INTER.CONST>
1

>  <SCORE.INTER.POLAR>
-0.874838

>  <SCORE.INTER.ROT>
9

>  <SCORE.INTER.SOLV>
27.1535

>  <SCORE.INTER.VDW>
-25.7272

>  <SCORE.INTER.norm>
-0.356863

>  <SCORE.INTRA>
8.14446

>  <SCORE.INTRA.DIHEDRAL>
-0.526375

>  <SCORE.INTRA.DIHEDRAL.0>
14.8538

>  <SCORE.INTRA.POLAR>
0

>  <SCORE.INTRA.POLAR.0>
0

>  <SCORE.INTRA.REPUL>
0.319387

>  <SCORE.INTRA.REPUL.0>
0

>  <SCORE.INTRA.SOLV>
1.95111

>  <SCORE.INTRA.SOLV.lig_0>
-100.951

>  <SCORE.INTRA.VDW>
5.83515

>  <SCORE.INTRA.VDW.0>
-5.71388

>  <SCORE.INTRA.norm>
0.193916

>  <SCORE.RESTR>
3.04862

>  <SCORE.RESTR.CAVITY>
3.04862

>  <SCORE.RESTR.norm>
0.0725861

>  <SCORE.SYSTEM>
0

>  <SCORE.SYSTEM.CONST>
0

>  <SCORE.SYSTEM.DIHEDRAL>
0

>  <SCORE.SYSTEM.SOLV>
0

>  <SCORE.SYSTEM.norm>
0

>  <SCORE.heavy>
42

>  <SCORE.norm>
-0.0903614

>  <RMSD>
12.897

$$$$
3c44_lig
 OpenBabel11021811463D
libRbt.so/2013.1/901 2013/11/27
 42 45  0  0  0  0  0  0  0  0999 V2000
   39.4408   39.3286   -5.6548 C   0  0  2  0  0  0  0  0  0  0  0  0
   38.3381   39.5991   -4.7758 O   0  0  0  0  0  0  0  0  0  0  0  0
   36.6580   41.7420   -7.9023 C   0  0  2  0  0  0  0  0  0  0  0  0
   35.8802   42.4958   -8.8976 N   0  0  0  0  0  0  0  0  0  0  0  0
   36.6543   42.2242   -3.5076 C   0  0  1  0  0  0  0  0  0  0  0  0
   35.4650   40.6917   -0.0852 C   0  0  1  0  0  0  0  0  0  0  0  0
   40.5212   38.5643   -4.8824 C   0  0  2  0  0  0  0  0  0  0  0  0
   39.9638   37.3546   -4.2603 N   0  0  0  0  0  0  0  0  0  0  0  0
   35.9880   40.3989   -7.5982 C   0  0  0  0  0  0  0  0  0  0  0  0
   37.0410   42.5434   -2.0627 C   0  0  2  0  0  0  0  0  0  0  0  0
   37.7370   41.4359   -1.4875 O   0  0  0  0  0  0  0  0  0  0  0  0
   35.9029   39.2506   -0.3668 C   0  0  2  0  0  0  0  0  0  0  0  0
   34.8120   38.5670   -1.0751 N   0  0  0  0  0  0  0  0  0  0  0  0
   41.1531   39.4388   -3.7966 C   0  0  1  0  0  0  0  0  0  0  0  0
   42.2571   38.7406   -3.2125 O   0  0  0  0  0  0  0  0  0  0  0  0
   36.9257   39.6070   -6.6808 C   0  0  2  0  0  0  0  0  0  0  0  0
   36.2878   38.3330   -6.3162 N   0  0  0  0  0  0  0  0  0  0  0  0
   35.6501   42.6292   -1.4374 C   0  0  2  0  0  0  0  0  0  0  0  0
   35.0635   41.3232   -1.3137 O   0  0  0  0  0  0  0  0  0  0  0  0
   36.1969   38.4965    0.9366 C   0  0  1  0  0  0  0  0  0  0  0  0
   37.3964   38.9897    1.5390 O   0  0  0  0  0  0  0  0  0  0  0  0
   41.6448   40.7519   -4.4085 C   0  0  2  0  0  0  0  0  0  0  0  0
   42.1338   41.6103   -3.3746 O   0  0  0  0  0  0  0  0  0  0  0  0
   37.2899   40.3634   -5.3972 C   0  0  2  0  0  0  0  0  0  0  0  0
   34.9132   43.4184   -2.5080 C   0  0  2  0  0  0  0  0  0  0  0  0
   35.5436   43.1023   -3.7682 O   0  0  0  0  0  0  0  0  0  0  0  0
   35.0468   38.6520    1.9330 C   0  0  2  0  0  0  0  0  0  0  0  0
   33.9001   37.9631    1.4263 O   0  0  0  0  0  0  0  0  0  0  0  0
   40.4922   41.4369   -5.1445 C   0  0  2  0  0  0  0  0  0  0  0  0
   39.9681   40.5666   -6.1669 O   0  0  0  0  0  0  0  0  0  0  0  0
   37.7417   41.8044   -5.6250 C   0  0  2  0  0  0  0  0  0  0  0  0
   37.7750   42.4972   -4.3666 O   0  0  0  0  0  0  0  0  0  0  0  0
   35.0169   44.9139   -2.2012 C   0  0  0  0  0  0  0  0  0  0  0  0
   34.4176   45.1729   -0.9297 O   0  0  0  0  0  0  0  0  0  0  0  0
   34.7404   40.1413    2.1112 C   0  0  1  0  0  0  0  0  0  0  0  0
   34.3611   40.6835    0.8338 O   0  0  0  0  0  0  0  0  0  0  0  0
   41.0420   42.7172   -5.7784 C   0  0  0  0  0  0  0  0  0  0  0  0
   40.0911   43.2367   -6.7720 O   0  0  0  0  0  0  0  0  0  0  0  0
   36.8003   42.5271   -6.5959 C   0  0  1  0  0  0  0  0  0  0  0  0
   37.2905   43.8427   -6.8641 O   0  0  0  0  0  0  0  0  0  0  0  0
   33.6107   40.3842    3.1129 C   0  0  0  0  0  0  0  0  0  0  0  0
   32.3297   40.0103    2.4974 N   0  0  0  0  0  0  0  0  0  0  0  0
  1  2  1  1  0  0  0
  1  7  1  0  0  0  0
  1 30  1  0  0  0  0
  3  4  1  6  0  0  0
  3  9  1  0  0  0  0
  3 39  1  0  0  0  0
  5 10  1  0  0  0  0
  5 26  1  0  0  0  0
  5 32  1  6  0  0  0
  6 12  1  0  0  0  0
  6 36  1  0  0  0  0
  6 19  1  6  0  0  0
  7  8  1  1  0  0  0
  7 14  1  0  0  0  0
  9 16  1  0  0  0  0
 10 11  1  1  0  0  0
 10 18  1  0  0  0  0
 12 13  1  1  0  0  0
 12 20  1  0  0  0  0
 14 15  1  6  0  0  0
 14 22  1  0  0  0  0
 16 17  1  1  0  0  0
 16 24  1  0  0  0  0
 18 19  1  6  0  0  0
 18 25  1  0  0  0  0
 20 21  1  1  0  0  0
 20 27  1  0  0  0  0
 22 23  1  1  0  0  0
 22 29  1  0  0  0  0
 24  2  1  6  0  0  0
 24 31  1  0  0  0  0
 25 26  1  0  0  0  0
 25 33  1  1  0  0  0
 27 28  1  6  0  0  0
 27 35  1  0  0  0  0
 29 30  1  0  0  0  0
 29 37  1  6  0  0  0
 31 32  1  1  0  0  0
 31 39  1  0  0  0  0
 33 34  1  0  0  0  0
 35 36  1  0  0  0  0
 35 41  1  1  0  0  0
 37 38  1  0  0  0  0
 39 40  1  6  0  0  0
 41 42  1  0  0  0  0
M  END
>  <CHROM.1>
177.66974797,158.14159044,-133.19747223,86.26107079,53.10850889,-60.54972366
165.57518497,-42.28126089,-73.62686153,37.19088457,40.92064344,-3.09713709
-0.88322655,-0.57959435,2.12737248

>  <Name>
3c44_lig

>  <RI>
224

>  <Rbt.Current_Directory>
/home/itssahil/PROJECTS/Mol_Feturizer/New_Systems/rnas/3c44

>  <Rbt.Executable>
rbdock ($Id: //depot/dev/client3/rdock/2013.1/src/exe/rbdock.cxx#4 $)

>  <Rbt.Library>
libRbt.so (2013.1, Build901 2013/11/27)

>  <Rbt.Parameter_File>
/export/apps/rDock/src/rDock_2013.1_src/data/scripts/dock_solv.prm

>  <Rbt.Receptor>
prm/blind_docking_60.prm

>  <SCORE>
-10.3393

>  <SCORE.INTER>
-20.7005

>  <SCORE.INTER.CONST>
1

>  <SCORE.INTER.POLAR>
-1.77646

>  <SCORE.INTER.ROT>
9

>  <SCORE.INTER.SOLV>
25.7585

>  <SCORE.INTER.VDW>
-26.065

>  <SCORE.INTER.norm>
-0.49287

>  <SCORE.INTRA>
5.03017

>  <SCORE.INTRA.DIHEDRAL>
-0.221912

>  <SCORE.INTRA.DIHEDRAL.0>
14.8538

>  <SCORE.INTRA.POLAR>
0

>  <SCORE.INTRA.POLAR.0>
0

>  <SCORE.INTRA.REPUL>
0

>  <SCORE.INTRA.REPUL.0>
0

>  <SCORE.INTRA.SOLV>
-1.64016

>  <SCORE.INTRA.SOLV.lig_0>
-100.951

>  <SCORE.INTRA.VDW>
5.96121

>  <SCORE.INTRA.VDW.0>
-5.71388

>  <SCORE.INTRA.norm>
0.119766

>  <SCORE.RESTR>
5.33107

>  <SCORE.RESTR.CAVITY>
5.33107

>  <SCORE.RESTR.norm>
0.12693

>  <SCORE.SYSTEM>
0

>  <SCORE.SYSTEM.CONST>
0

>  <SCORE.SYSTEM.DIHEDRAL>
0

>  <SCORE.SYSTEM.SOLV>
0

>  <SCORE.SYSTEM.norm>
0

>  <SCORE.heavy>
42

>  <SCORE.norm>
-0.246174

>  <RMSD>
12.901

$$$$
3c44_lig
 OpenBabel11021811463D
libRbt.so/2013.1/901 2013/11/27
 42 45  0  0  0  0  0  0  0  0999 V2000
   39.6061   39.9731   -5.5916 C   0  0  2  0  0  0  0  0  0  0  0  0
   38.3376   39.8638   -4.9276 O   0  0  0  0  0  0  0  0  0  0  0  0
   36.6068   41.4786   -8.3315 C   0  0  2  0  0  0  0  0  0  0  0  0
   35.8084   42.0458   -9.4292 N   0  0  0  0  0  0  0  0  0  0  0  0
   36.6495   42.2954   -3.8775 C   0  0  1  0  0  0  0  0  0  0  0  0
   35.5591   40.5536   -0.1979 C   0  0  1  0  0  0  0  0  0  0  0  0
   40.6038   39.0199   -4.9254 C   0  0  2  0  0  0  0  0  0  0  0  0
   40.0787   37.6471   -4.8982 N   0  0  0  0  0  0  0  0  0  0  0  0
   36.0229   40.1380   -7.8764 C   0  0  0  0  0  0  0  0  0  0  0  0
   37.3061   42.4629   -2.5064 C   0  0  2  0  0  0  0  0  0  0  0  0
   38.1468   41.3417   -2.2275 O   0  0  0  0  0  0  0  0  0  0  0  0
   35.9584   39.0745   -0.1753 C   0  0  2  0  0  0  0  0  0  0  0  0
   35.0705   38.3428   -1.0894 N   0  0  0  0  0  0  0  0  0  0  0  0
   40.9249   39.4606   -3.4951 C   0  0  1  0  0  0  0  0  0  0  0  0
   41.9730   38.6384   -2.9728 O   0  0  0  0  0  0  0  0  0  0  0  0
   36.9854   39.5350   -6.8479 C   0  0  2  0  0  0  0  0  0  0  0  0
   36.4269   38.2725   -6.3407 N   0  0  0  0  0  0  0  0  0  0  0  0
   36.0672   42.3827   -1.6167 C   0  0  2  0  0  0  0  0  0  0  0  0
   35.5696   41.0360   -1.5530 O   0  0  0  0  0  0  0  0  0  0  0  0
   35.8152   38.4837    1.2334 C   0  0  1  0  0  0  0  0  0  0  0  0
   36.8240   39.0094    2.1000 O   0  0  0  0  0  0  0  0  0  0  0  0
   41.3725   40.9234   -3.4908 C   0  0  2  0  0  0  0  0  0  0  0  0
   41.5653   41.3629   -2.1437 O   0  0  0  0  0  0  0  0  0  0  0  0
   37.2579   40.4679   -5.6613 C   0  0  2  0  0  0  0  0  0  0  0  0
   35.0993   43.2455   -2.4110 C   0  0  2  0  0  0  0  0  0  0  0  0
   35.4753   43.1247   -3.8000 O   0  0  0  0  0  0  0  0  0  0  0  0
   34.4422   38.8037    1.8267 C   0  0  2  0  0  0  0  0  0  0  0  0
   33.4431   38.0945    1.0884 O   0  0  0  0  0  0  0  0  0  0  0  0
   40.3064   41.7870   -4.1667 C   0  0  2  0  0  0  0  0  0  0  0  0
   40.0784   41.3311   -5.5148 O   0  0  0  0  0  0  0  0  0  0  0  0
   37.6152   41.8989   -6.0576 C   0  0  2  0  0  0  0  0  0  0  0  0
   37.5628   42.7417   -4.8950 O   0  0  0  0  0  0  0  0  0  0  0  0
   35.2034   44.6968   -1.9374 C   0  0  0  0  0  0  0  0  0  0  0  0
   34.9268   44.7522   -0.5362 O   0  0  0  0  0  0  0  0  0  0  0  0
   34.2014   40.3131    1.7388 C   0  0  1  0  0  0  0  0  0  0  0  0
   34.2409   40.6999    0.3538 O   0  0  0  0  0  0  0  0  0  0  0  0
   40.8183   43.2296   -4.1816 C   0  0  0  0  0  0  0  0  0  0  0  0
   39.6860   44.1669   -4.1709 O   0  0  0  0  0  0  0  0  0  0  0  0
   36.6552   42.4265   -7.1305 C   0  0  1  0  0  0  0  0  0  0  0  0
   37.0606   43.7313   -7.5505 O   0  0  0  0  0  0  0  0  0  0  0  0
   32.8524   40.7197    2.3333 C   0  0  0  0  0  0  0  0  0  0  0  0
   32.5664   42.1156    1.9739 N   0  0  0  0  0  0  0  0  0  0  0  0
  1  2  1  1  0  0  0
  1  7  1  0  0  0  0
  1 30  1  0  0  0  0
  3  4  1  6  0  0  0
  3  9  1  0  0  0  0
  3 39  1  0  0  0  0
  5 10  1  0  0  0  0
  5 26  1  0  0  0  0
  5 32  1  6  0  0  0
  6 12  1  0  0  0  0
  6 36  1  0  0  0  0
  6 19  1  6  0  0  0
  7  8  1  1  0  0  0
  7 14  1  0  0  0  0
  9 16  1  0  0  0  0
 10 11  1  1  0  0  0
 10 18  1  0  0  0  0
 12 13  1  6  0  0  0
 12 20  1  0  0  0  0
 14 15  1  6  0  0  0
 14 22  1  0  0  0  0
 16 17  1  1  0  0  0
 16 24  1  0  0  0  0
 18 19  1  6  0  0  0
 18 25  1  0  0  0  0
 20 21  1  1  0  0  0
 20 27  1  0  0  0  0
 22 23  1  1  0  0  0
 22 29  1  0  0  0  0
 24  2  1  6  0  0  0
 24 31  1  0  0  0  0
 25 26  1  0  0  0  0
 25 33  1  1  0  0  0
 27 28  1  6  0  0  0
 27 35  1  0  0  0  0
 29 30  1  0  0  0  0
 29 37  1  6  0  0  0
 31 32  1  1  0  0  0
 31 39  1  0  0  0  0
 33 34  1  0  0  0  0
 35 36  1  0  0  0  0
 35 41  1  6  0  0  0
 37 38  1  0  0  0  0
 39 40  1  6  0  0  0
 41 42  1  0  0  0  0
M  END
>  <CHROM.1>
-166.07228355,137.91988160,-142.18522821,120.64567803,72.74297517,-57.71723078
-151.92110457,-27.82463005,-168.52906991,37.12474863,41.01982025,-3.06567949
-0.95800211,-0.48173383,2.00241552

>  <Name>
3c44_lig

>  <RI>
224

>  <Rbt.Current_Directory>
/home/itssahil/PROJECTS/Mol_Feturizer/New_Systems/rnas/3c44

>  <Rbt.Executable>
rbdock ($Id: //depot/dev/client3/rdock/2013.1/src/exe/rbdock.cxx#4 $)

>  <Rbt.Library>
libRbt.so (2013.1, Build901 2013/11/27)

>  <Rbt.Parameter_File>
/export/apps/rDock/src/rDock_2013.1_src/data/scripts/dock_solv.prm

>  <Rbt.Receptor>
prm/blind_docking_60.prm

>  <SCORE>
-3.14207

>  <SCORE.INTER>
-16.9256

>  <SCORE.INTER.CONST>
1

>  <SCORE.INTER.POLAR>
-1.40308

>  <SCORE.INTER.ROT>
9

>  <SCORE.INTER.SOLV>
25.4838

>  <SCORE.INTER.VDW>
-24.7014

>  <SCORE.INTER.norm>
-0.40299

>  <SCORE.INTRA>
8.92243

>  <SCORE.INTRA.DIHEDRAL>
11.3343

>  <SCORE.INTRA.DIHEDRAL.0>
14.8538

>  <SCORE.INTRA.POLAR>
0

>  <SCORE.INTRA.POLAR.0>
0

>  <SCORE.INTRA.REPUL>
0.0118664

>  <SCORE.INTRA.REPUL.0>
0

>  <SCORE.INTRA.SOLV>
-2.59438

>  <SCORE.INTRA.SOLV.lig_0>
-100.951

>  <SCORE.INTRA.VDW>
4.49313

>  <SCORE.INTRA.VDW.0>
-5.71388

>  <SCORE.INTRA.norm>
0.212439

>  <SCORE.RESTR>
4.86108

>  <SCORE.RESTR.CAVITY>
4.86108

>  <SCORE.RESTR.norm>
0.11574

>  <SCORE.SYSTEM>
0

>  <SCORE.SYSTEM.CONST>
0

>  <SCORE.SYSTEM.DIHEDRAL>
0

>  <SCORE.SYSTEM.SOLV>
0

>  <SCORE.SYSTEM.norm>
0

>  <SCORE.heavy>
42

>  <SCORE.norm>
-0.0748113

>  <RMSD>
12.911

$$$$
3c44_lig
 OpenBabel11021811463D
libRbt.so/2013.1/901 2013/11/27
 42 45  0  0  0  0  0  0  0  0999 V2000
   39.7247   40.0518   -5.6186 C   0  0  2  0  0  0  0  0  0  0  0  0
   38.4101   39.9611   -5.0481 O   0  0  0  0  0  0  0  0  0  0  0  0
   37.0135   41.9274   -8.4204 C   0  0  2  0  0  0  0  0  0  0  0  0
   36.3247   42.6138   -9.5242 N   0  0  0  0  0  0  0  0  0  0  0  0
   36.7874   42.2421   -3.8593 C   0  0  1  0  0  0  0  0  0  0  0  0
   35.6786   40.4727   -0.1908 C   0  0  1  0  0  0  0  0  0  0  0  0
   40.6559   39.0784   -4.8884 C   0  0  2  0  0  0  0  0  0  0  0  0
   40.1072   37.7147   -4.9071 N   0  0  0  0  0  0  0  0  0  0  0  0
   36.3692   40.5655   -8.1461 C   0  0  0  0  0  0  0  0  0  0  0  0
   37.2280   42.6237   -2.4453 C   0  0  2  0  0  0  0  0  0  0  0  0
   38.2654   41.7461   -2.0036 O   0  0  0  0  0  0  0  0  0  0  0  0
   35.8294   38.9513   -0.0886 C   0  0  2  0  0  0  0  0  0  0  0  0
   34.8324   38.3286   -0.9703 N   0  0  0  0  0  0  0  0  0  0  0  0
   40.8807   39.5067   -3.4361 C   0  0  1  0  0  0  0  0  0  0  0  0
   41.8747   38.6641   -2.8449 O   0  0  0  0  0  0  0  0  0  0  0  0
   37.2271   39.8458   -7.1001 C   0  0  2  0  0  0  0  0  0  0  0  0
   36.6049   38.5561   -6.7646 N   0  0  0  0  0  0  0  0  0  0  0  0
   35.9473   42.2966   -1.6800 C   0  0  2  0  0  0  0  0  0  0  0  0
   35.7667   40.8753   -1.5689 O   0  0  0  0  0  0  0  0  0  0  0  0
   35.5927   38.4666    1.3477 C   0  0  1  0  0  0  0  0  0  0  0  0
   36.6751   38.8641    2.1935 O   0  0  0  0  0  0  0  0  0  0  0  0
   41.3514   40.9616   -3.3908 C   0  0  2  0  0  0  0  0  0  0  0  0
   41.4542   41.3911   -2.0308 O   0  0  0  0  0  0  0  0  0  0  0  0
   37.4096   40.6575   -5.8116 C   0  0  2  0  0  0  0  0  0  0  0  0
   34.9046   42.8693   -2.6271 C   0  0  2  0  0  0  0  0  0  0  0  0
   35.4537   42.7749   -3.9593 O   0  0  0  0  0  0  0  0  0  0  0  0
   34.2916   39.0383    1.9133 C   0  0  2  0  0  0  0  0  0  0  0  0
   33.1887   38.4651    1.2053 O   0  0  0  0  0  0  0  0  0  0  0  0
   40.3511   41.8466   -4.1362 C   0  0  2  0  0  0  0  0  0  0  0  0
   40.2130   41.4011   -5.4999 O   0  0  0  0  0  0  0  0  0  0  0  0
   37.8245   42.1097   -6.0386 C   0  0  2  0  0  0  0  0  0  0  0  0
   37.6841   42.8421   -4.8103 O   0  0  0  0  0  0  0  0  0  0  0  0
   34.6196   44.3251   -2.2517 C   0  0  0  0  0  0  0  0  0  0  0  0
   35.7460   45.1291   -2.6093 O   0  0  0  0  0  0  0  0  0  0  0  0
   34.3020   40.5600    1.7456 C   0  0  1  0  0  0  0  0  0  0  0  0
   34.4030   40.8621    0.3427 O   0  0  0  0  0  0  0  0  0  0  0  0
   40.8870   43.2802   -4.1057 C   0  0  0  0  0  0  0  0  0  0  0  0
   39.7714   44.2367   -4.1447 O   0  0  0  0  0  0  0  0  0  0  0  0
   36.9719   42.7584   -7.1355 C   0  0  1  0  0  0  0  0  0  0  0  0
   37.4346   44.0859   -7.3936 O   0  0  0  0  0  0  0  0  0  0  0  0
   33.0388   41.2131    2.3081 C   0  0  0  0  0  0  0  0  0  0  0  0
   31.9242   40.9928    1.3760 N   0  0  0  0  0  0  0  0  0  0  0  0
  1  2  1  1  0  0  0
  1  7  1  0  0  0  0
  1 30  1  0  0  0  0
  3  4  1  6  0  0  0
  3  9  1  0  0  0  0
  3 39  1  0  0  0  0
  5 10  1  0  0  0  0
  5 26  1  0  0  0  0
  5 32  1  6  0  0  0
  6 12  1  0  0  0  0
  6 36  1  0  0  0  0
  6 19  1  6  0  0  0
  7  8  1  1  0  0  0
  7 14  1  0  0  0  0
  9 16  1  0  0  0  0
 10 11  1  1  0  0  0
 10 18  1  0  0  0  0
 12 13  1  6  0  0  0
 12 20  1  0  0  0  0
 14 15  1  6  0  0  0
 14 22  1  0  0  0  0
 16 17  1  1  0  0  0
 16 24  1  0  0  0  0
 18 19  1  6  0  0  0
 18 25  1  0  0  0  0
 20 21  1  1  0  0  0
 20 27  1  0  0  0  0
 22 23  1  1  0  0  0
 22 29  1  0  0  0  0
 24  2  1  1  0  0  0
 24 31  1  0  0  0  0
 25 26  1  0  0  0  0
 25 33  1  1  0  0  0
 27 28  1  6  0  0  0
 27 35  1  0  0  0  0
 29 30  1  0  0  0  0
 29 37  1  6  0  0  0
 31 32  1  1  0  0  0
 31 39  1  0  0  0  0
 33 34  1  0  0  0  0
 35 36  1  0  0  0  0
 35 41  1  6  0  0  0
 37 38  1  0  0  0  0
 39 40  1  6  0  0  0
 41 42  1  0  0  0  0
M  END
>  <CHROM.1>
-169.67306249,151.19841931,-166.34147977,122.11282252,70.21661873,71.56790434
-150.84362233,-21.16272934,-76.14511085,37.18077075,41.10296679,-3.14372820
-0.96980449,-0.43187611,2.04104189

>  <Name>
3c44_lig

>  <RI>
224

>  <Rbt.Current_Directory>
/home/itssahil/PROJECTS/Mol_Feturizer/New_Systems/rnas/3c44

>  <Rbt.Executable>
rbdock ($Id: //depot/dev/client3/rdock/2013.1/src/exe/rbdock.cxx#4 $)

>  <Rbt.Library>
libRbt.so (2013.1, Build901 2013/11/27)

>  <Rbt.Parameter_File>
/export/apps/rDock/src/rDock_2013.1_src/data/scripts/dock_solv.prm

>  <Rbt.Receptor>
prm/blind_docking_60.prm

>  <SCORE>
-2.18201

>  <SCORE.INTER>
-16.3357

>  <SCORE.INTER.CONST>
1

>  <SCORE.INTER.POLAR>
-1.17111

>  <SCORE.INTER.ROT>
9

>  <SCORE.INTER.SOLV>
25.0436

>  <SCORE.INTER.VDW>
-24.9346

>  <SCORE.INTER.norm>
-0.388945

>  <SCORE.INTRA>
8.6803

>  <SCORE.INTRA.DIHEDRAL>
6.42282

>  <SCORE.INTRA.DIHEDRAL.0>
14.8538

>  <SCORE.INTRA.POLAR>
0

>  <SCORE.INTRA.POLAR.0>
0

>  <SCORE.INTRA.REPUL>
0.000128371

>  <SCORE.INTRA.REPUL.0>
0

>  <SCORE.INTRA.SOLV>
-0.664036

>  <SCORE.INTRA.SOLV.lig_0>
-100.951

>  <SCORE.INTRA.VDW>
5.80026

>  <SCORE.INTRA.VDW.0>
-5.71388

>  <SCORE.INTRA.norm>
0.206674

>  <SCORE.RESTR>
5.4734

>  <SCORE.RESTR.CAVITY>
5.4734

>  <SCORE.RESTR.norm>
0.130319

>  <SCORE.SYSTEM>
0

>  <SCORE.SYSTEM.CONST>
0

>  <SCORE.SYSTEM.DIHEDRAL>
0

>  <SCORE.SYSTEM.SOLV>
0

>  <SCORE.SYSTEM.norm>
0

>  <SCORE.heavy>
42

>  <SCORE.norm>
-0.0519527

>  <RMSD>
12.919

$$$$
3c44_lig
 OpenBabel11021811463D
libRbt.so/2013.1/901 2013/11/27
 42 45  0  0  0  0  0  0  0  0999 V2000
   39.1495   41.5143   -3.8389 C   0  0  2  0  0  0  0  0  0  0  0  0
   39.3990   42.1144   -5.1193 O   0  0  0  0  0  0  0  0  0  0  0  0
   37.6000   45.0292   -7.4553 C   0  0  2  0  0  0  0  0  0  0  0  0
   36.7769   45.9647   -8.2372 N   0  0  0  0  0  0  0  0  0  0  0  0
   36.9223   43.2805   -3.3860 C   0  0  1  0  0  0  0  0  0  0  0  0
   35.9840   40.4964   -0.7889 C   0  0  1  0  0  0  0  0  0  0  0  0
   40.2969   40.5560   -3.5028 C   0  0  2  0  0  0  0  0  0  0  0  0
   41.5937   41.2442   -3.5792 N   0  0  0  0  0  0  0  0  0  0  0  0
   37.3597   43.5874   -7.9121 C   0  0  0  0  0  0  0  0  0  0  0  0
   36.6943   43.3365   -1.8747 C   0  0  2  0  0  0  0  0  0  0  0  0
   37.7135   42.5971   -1.1994 O   0  0  0  0  0  0  0  0  0  0  0  0
   36.3746   39.0463   -1.0928 C   0  0  2  0  0  0  0  0  0  0  0  0
   35.2605   38.4083   -1.8075 N   0  0  0  0  0  0  0  0  0  0  0  0
   40.3130   39.3531   -4.4493 C   0  0  1  0  0  0  0  0  0  0  0  0
   41.2948   38.4138   -4.0010 O   0  0  0  0  0  0  0  0  0  0  0  0
   38.3560   42.6906   -7.1696 C   0  0  2  0  0  0  0  0  0  0  0  0
   38.1147   41.2872   -7.5371 N   0  0  0  0  0  0  0  0  0  0  0  0
   35.3815   42.5612   -1.7840 C   0  0  2  0  0  0  0  0  0  0  0  0
   35.5996   41.1584   -2.0067 O   0  0  0  0  0  0  0  0  0  0  0  0
   36.6479   38.2642    0.1986 C   0  0  1  0  0  0  0  0  0  0  0  0
   37.8642   38.7098    0.8042 O   0  0  0  0  0  0  0  0  0  0  0  0
   38.9365   38.6858   -4.4642 C   0  0  2  0  0  0  0  0  0  0  0  0
   38.9240   37.6318   -5.4306 O   0  0  0  0  0  0  0  0  0  0  0  0
   38.2646   42.8258   -5.6445 C   0  0  2  0  0  0  0  0  0  0  0  0
   34.6282   43.1526   -2.9651 C   0  0  2  0  0  0  0  0  0  0  0  0
   35.6196   43.5421   -3.9401 O   0  0  0  0  0  0  0  0  0  0  0  0
   35.5060   38.4417    1.2008 C   0  0  2  0  0  0  0  0  0  0  0  0
   34.3365   37.7974    0.6877 O   0  0  0  0  0  0  0  0  0  0  0  0
   37.8690   39.7222   -4.8185 C   0  0  2  0  0  0  0  0  0  0  0  0
   37.8955   40.8074   -3.8705 O   0  0  0  0  0  0  0  0  0  0  0  0
   38.2580   44.2680   -5.1419 C   0  0  2  0  0  0  0  0  0  0  0  0
   37.8812   44.2869   -3.7554 O   0  0  0  0  0  0  0  0  0  0  0  0
   33.8133   44.3602   -2.4970 C   0  0  0  0  0  0  0  0  0  0  0  0
   32.9150   43.9463   -1.4651 O   0  0  0  0  0  0  0  0  0  0  0  0
   35.2480   39.9374    1.4015 C   0  0  1  0  0  0  0  0  0  0  0  0
   34.8828   40.5100    0.1334 O   0  0  0  0  0  0  0  0  0  0  0  0
   36.5087   39.0215   -4.7738 C   0  0  0  0  0  0  0  0  0  0  0  0
   35.4834   39.8698   -5.3985 O   0  0  0  0  0  0  0  0  0  0  0  0
   37.2884   45.1292   -5.9599 C   0  0  1  0  0  0  0  0  0  0  0  0
   37.3639   46.4910   -5.5323 O   0  0  0  0  0  0  0  0  0  0  0  0
   34.1294   40.2016    2.4102 C   0  0  0  0  0  0  0  0  0  0  0  0
   32.9108   39.5053    1.9746 N   0  0  0  0  0  0  0  0  0  0  0  0
  1  2  1  6  0  0  0
  1  7  1  0  0  0  0
  1 30  1  0  0  0  0
  3  4  1  6  0  0  0
  3  9  1  0  0  0  0
  3 39  1  0  0  0  0
  5 10  1  0  0  0  0
  5 26  1  0  0  0  0
  5 32  1  6  0  0  0
  6 12  1  0  0  0  0
  6 36  1  0  0  0  0
  6 19  1  6  0  0  0
  7  8  1  6  0  0  0
  7 14  1  0  0  0  0
  9 16  1  0  0  0  0
 10 11  1  1  0  0  0
 10 18  1  0  0  0  0
 12 13  1  1  0  0  0
 12 20  1  0  0  0  0
 14 15  1  1  0  0  0
 14 22  1  0  0  0  0
 16 17  1  1  0  0  0
 16 24  1  0  0  0  0
 18 19  1  6  0  0  0
 18 25  1  0  0  0  0
 20 21  1  1  0  0  0
 20 27  1  0  0  0  0
 22 23  1  6  0  0  0
 22 29  1  0  0  0  0
 24  2  1  1  0  0  0
 24 31  1  0  0  0  0
 25 26  1  0  0  0  0
 25 33  1  1  0  0  0
 27 28  1  6  0  0  0
 27 35  1  0  0  0  0
 29 30  1  0  0  0  0
 29 37  1  1  0  0  0
 31 32  1  1  0  0  0
 31 39  1  0  0  0  0
 33 34  1  0  0  0  0
 35 36  1  0  0  0  0
 35 41  1  1  0  0  0
 37 38  1  0  0  0  0
 39 40  1  1  0  0  0
 41 42  1  0  0  0  0
M  END
>  <CHROM.1>
168.54805247,175.48535150,-173.07827214,85.17148283,-148.36328206,-58.08588120
-167.02900534,-34.24193484,-56.16986357,36.97091034,41.41371726,-3.16405708
-1.07955875,-0.74002194,2.45743813

>  <Name>
3c44_lig

>  <RI>
0

>  <Rbt.Current_Directory>
/home/itssahil/PROJECTS/Mol_Feturizer/New_Systems/rnas/3c44

>  <Rbt.Executable>
rbdock ($Id: //depot/dev/client3/rdock/2013.1/src/exe/rbdock.cxx#4 $)

>  <Rbt.Library>
libRbt.so (2013.1, Build901 2013/11/27)

>  <Rbt.Parameter_File>
/export/apps/rDock/src/rDock_2013.1_src/data/scripts/dock_solv.prm

>  <Rbt.Receptor>
prm/blind_docking_80.prm

>  <SCORE>
-3.34243

>  <SCORE.INTER>
-8.96234

>  <SCORE.INTER.CONST>
1

>  <SCORE.INTER.POLAR>
-0.722972

>  <SCORE.INTER.ROT>
9

>  <SCORE.INTER.SOLV>
25.0498

>  <SCORE.INTER.VDW>
-21.5149

>  <SCORE.INTER.norm>
-0.213389

>  <SCORE.INTRA>
1.97931

>  <SCORE.INTRA.DIHEDRAL>
-3.63415

>  <SCORE.INTRA.DIHEDRAL.0>
14.8538

>  <SCORE.INTRA.POLAR>
0

>  <SCORE.INTRA.POLAR.0>
0

>  <SCORE.INTRA.REPUL>
0.0634989

>  <SCORE.INTRA.REPUL.0>
0

>  <SCORE.INTRA.SOLV>
1.67913

>  <SCORE.INTRA.SOLV.lig_0>
-100.951

>  <SCORE.INTRA.VDW>
2.63933

>  <SCORE.INTRA.VDW.0>
-5.71388

>  <SCORE.INTRA.norm>
0.0471265

>  <SCORE.RESTR>
3.64061

>  <SCORE.RESTR.CAVITY>
3.64061

>  <SCORE.RESTR.norm>
0.0866811

>  <SCORE.SYSTEM>
0

>  <SCORE.SYSTEM.CONST>
0

>  <SCORE.SYSTEM.DIHEDRAL>
0

>  <SCORE.SYSTEM.SOLV>
0

>  <SCORE.SYSTEM.norm>
0

>  <SCORE.heavy>
42

>  <SCORE.norm>
-0.0795816

>  <RMSD>
12.926

$$$$
3c44_lig
 OpenBabel11021811463D
libRbt.so/2013.1/901 2013/11/27
 42 45  0  0  0  0  0  0  0  0999 V2000
   36.1115   44.9205   -1.9649 C   0  0  2  0  0  0  0  0  0  0  0  0
   36.2920   44.6709   -3.3674 O   0  0  0  0  0  0  0  0  0  0  0  0
   36.7562   47.2171   -6.6064 C   0  0  2  0  0  0  0  0  0  0  0  0
   37.0494   48.2349   -7.6271 N   0  0  0  0  0  0  0  0  0  0  0  0
   38.8864   43.1858   -5.1258 C   0  0  1  0  0  0  0  0  0  0  0  0
   38.2879   40.0895   -6.0036 C   0  0  1  0  0  0  0  0  0  0  0  0
   36.1584   43.5884   -1.2091 C   0  0  2  0  0  0  0  0  0  0  0  0
   37.3959   42.8561   -1.5143 N   0  0  0  0  0  0  0  0  0  0  0  0
   36.1955   47.8694   -5.3394 C   0  0  0  0  0  0  0  0  0  0  0  0
   40.3254   42.6782   -5.0231 C   0  0  2  0  0  0  0  0  0  0  0  0
   41.0109   42.9010   -6.2569 O   0  0  0  0  0  0  0  0  0  0  0  0
   38.0341   39.0792   -7.1273 C   0  0  2  0  0  0  0  0  0  0  0  0
   38.3282   39.7324   -8.4102 N   0  0  0  0  0  0  0  0  0  0  0  0
   34.9569   42.7071   -1.5592 C   0  0  1  0  0  0  0  0  0  0  0  0
   34.9592   41.5507   -0.7165 O   0  0  0  0  0  0  0  0  0  0  0  0
   35.7696   46.7475   -4.3864 C   0  0  2  0  0  0  0  0  0  0  0  0
   35.2812   47.3357   -3.1301 N   0  0  0  0  0  0  0  0  0  0  0  0
   40.0598   41.1819   -4.8707 C   0  0  2  0  0  0  0  0  0  0  0  0
   39.6240   40.6105   -6.1152 O   0  0  0  0  0  0  0  0  0  0  0  0
   36.5727   38.6120   -7.1324 C   0  0  1  0  0  0  0  0  0  0  0  0
   36.3128   37.7734   -6.0036 O   0  0  0  0  0  0  0  0  0  0  0  0
   33.6597   43.4902   -1.3488 C   0  0  2  0  0  0  0  0  0  0  0  0
   32.5473   42.7023   -1.7808 O   0  0  0  0  0  0  0  0  0  0  0  0
   36.9058   45.7683   -4.0658 C   0  0  2  0  0  0  0  0  0  0  0  0
   38.8999   41.2050   -3.8878 C   0  0  2  0  0  0  0  0  0  0  0  0
   38.1855   42.4395   -4.1137 O   0  0  0  0  0  0  0  0  0  0  0  0
   35.6146   39.8037   -7.0902 C   0  0  2  0  0  0  0  0  0  0  0  0
   35.7163   40.5222   -8.3229 O   0  0  0  0  0  0  0  0  0  0  0  0
   33.7115   44.7915   -2.1507 C   0  0  2  0  0  0  0  0  0  0  0  0
   34.8495   45.5788   -1.7479 O   0  0  0  0  0  0  0  0  0  0  0  0
   37.6646   45.2648   -5.2919 C   0  0  2  0  0  0  0  0  0  0  0  0
   38.8663   44.6007   -4.8681 O   0  0  0  0  0  0  0  0  0  0  0  0
   39.4415   41.1368   -2.4583 C   0  0  0  0  0  0  0  0  0  0  0  0
   40.1922   39.9309   -2.2999 O   0  0  0  0  0  0  0  0  0  0  0  0
   35.9935   40.7056   -5.9126 C   0  0  1  0  0  0  0  0  0  0  0  0
   37.3423   41.1658   -6.1080 O   0  0  0  0  0  0  0  0  0  0  0  0
   32.4178   45.5607   -1.8716 C   0  0  0  0  0  0  0  0  0  0  0  0
   32.3919   46.8051   -2.6538 O   0  0  0  0  0  0  0  0  0  0  0  0
   38.0110   46.4224   -6.2358 C   0  0  1  0  0  0  0  0  0  0  0  0
   38.6404   45.9192   -7.4163 O   0  0  0  0  0  0  0  0  0  0  0  0
   35.0657   41.9148   -5.7877 C   0  0  0  0  0  0  0  0  0  0  0  0
   34.9472   42.2894   -4.3716 N   0  0  0  0  0  0  0  0  0  0  0  0
  1  2  1  6  0  0  0
  1  7  1  0  0  0  0
  1 30  1  0  0  0  0
  3  4  1  6  0  0  0
  3  9  1  0  0  0  0
  3 39  1  0  0  0  0
  5 10  1  0  0  0  0
  5 26  1  0  0  0  0
  5 32  1  1  0  0  0
  6 12  1  0  0  0  0
  6 36  1  0  0  0  0
  6 19  1  6  0  0  0
  7  8  1  6  0  0  0
  7 14  1  0  0  0  0
  9 16  1  0  0  0  0
 10 11  1  6  0  0  0
 10 18  1  0  0  0  0
 12 13  1  6  0  0  0
 12 20  1  0  0  0  0
 14 15  1  1  0  0  0
 14 22  1  0  0  0  0
 16 17  1  1  0  0  0
 16 24  1  0  0  0  0
 18 19  1  6  0  0  0
 18 25  1  0  0  0  0
 20 21  1  1  0  0  0
 20 27  1  0  0  0  0
 22 23  1  6  0  0  0
 22 29  1  0  0  0  0
 24  2  1  6  0  0  0
 24 31  1  0  0  0  0
 25 26  1  0  0  0  0
 25 33  1  1  0  0  0
 27 28  1  6  0  0  0
 27 35  1  0  0  0  0
 29 30  1  0  0  0  0
 29 37  1  1  0  0  0
 31 32  1  1  0  0  0
 31 39  1  0  0  0  0
 33 34  1  0  0  0  0
 35 36  1  0  0  0  0
 35 41  1  6  0  0  0
 37 38  1  0  0  0  0
 39 40  1  6  0  0  0
 41 42  1  0  0  0  0
M  END
>  <CHROM.1>
-151.17549688,163.45271586,-160.15489313,-117.03189872,-83.00105176,-59.60636947
-178.13482346,113.17973156,148.69922207,36.79644821,43.11363118,-4.49976682
2.36427909,0.81542134,-0.11144529

>  <Name>
3c44_lig

>  <RI>
0

>  <Rbt.Current_Directory>
/home/itssahil/PROJECTS/Mol_Feturizer/New_Systems/rnas/3c44

>  <Rbt.Executable>
rbdock ($Id: //depot/dev/client3/rdock/2013.1/src/exe/rbdock.cxx#4 $)

>  <Rbt.Library>
libRbt.so (2013.1, Build901 2013/11/27)

>  <Rbt.Parameter_File>
/export/apps/rDock/src/rDock_2013.1_src/data/scripts/dock_solv.prm

>  <Rbt.Receptor>
prm/blind_docking_100.prm

>  <SCORE>
26.9396

>  <SCORE.INTER>
0.581356

>  <SCORE.INTER.CONST>
1

>  <SCORE.INTER.POLAR>
0

>  <SCORE.INTER.ROT>
9

>  <SCORE.INTER.SOLV>
22.0482

>  <SCORE.INTER.VDW>
-16.5618

>  <SCORE.INTER.norm>
0.0138418

>  <SCORE.INTRA>
20.7936

>  <SCORE.INTRA.DIHEDRAL>
10.6099

>  <SCORE.INTRA.DIHEDRAL.0>
14.8538

>  <SCORE.INTRA.POLAR>
0

>  <SCORE.INTRA.POLAR.0>
0

>  <SCORE.INTRA.REPUL>
0.169808

>  <SCORE.INTRA.REPUL.0>
0

>  <SCORE.INTRA.SOLV>
9.61221

>  <SCORE.INTRA.SOLV.lig_0>
-100.951

>  <SCORE.INTRA.VDW>
9.83354

>  <SCORE.INTRA.VDW.0>
-5.71388

>  <SCORE.INTRA.norm>
0.495086

>  <SCORE.RESTR>
5.56463

>  <SCORE.RESTR.CAVITY>
5.56463

>  <SCORE.RESTR.norm>
0.132491

>  <SCORE.SYSTEM>
0

>  <SCORE.SYSTEM.CONST>
0

>  <SCORE.SYSTEM.DIHEDRAL>
0

>  <SCORE.SYSTEM.SOLV>
0

>  <SCORE.SYSTEM.norm>
0

>  <SCORE.heavy>
42

>  <SCORE.norm>
0.641419

>  <RMSD>
12.929

$$$$
3c44_lig
 OpenBabel11021811463D
libRbt.so/2013.1/901 2013/11/27
 42 45  0  0  0  0  0  0  0  0999 V2000
   39.4711   39.3610   -5.6327 C   0  0  2  0  0  0  0  0  0  0  0  0
   38.3679   39.6100   -4.7480 O   0  0  0  0  0  0  0  0  0  0  0  0
   36.6284   41.7078   -7.8725 C   0  0  2  0  0  0  0  0  0  0  0  0
   35.8329   42.4514   -8.8616 N   0  0  0  0  0  0  0  0  0  0  0  0
   36.7589   42.3067   -3.4999 C   0  0  1  0  0  0  0  0  0  0  0  0
   35.2386   40.7887   -0.0088 C   0  0  1  0  0  0  0  0  0  0  0  0
   40.5468   38.5695   -4.8814 C   0  0  2  0  0  0  0  0  0  0  0  0
   39.9831   37.3443   -4.2965 N   0  0  0  0  0  0  0  0  0  0  0  0
   35.9458   40.3841   -7.5161 C   0  0  0  0  0  0  0  0  0  0  0  0
   37.2453   42.4364   -2.0558 C   0  0  2  0  0  0  0  0  0  0  0  0
   37.8236   41.2036   -1.6228 O   0  0  0  0  0  0  0  0  0  0  0  0
   35.8410   39.3847   -0.1257 C   0  0  2  0  0  0  0  0  0  0  0  0
   35.0544   38.6254   -1.1074 N   0  0  0  0  0  0  0  0  0  0  0  0
   41.1804   39.4087   -3.7690 C   0  0  1  0  0  0  0  0  0  0  0  0
   42.2803   38.6888   -3.2040 O   0  0  0  0  0  0  0  0  0  0  0  0
   36.8979   39.5977   -6.6088 C   0  0  2  0  0  0  0  0  0  0  0  0
   36.2504   38.3438   -6.1946 N   0  0  0  0  0  0  0  0  0  0  0  0
   35.9046   42.6263   -1.3491 C   0  0  2  0  0  0  0  0  0  0  0  0
   35.1670   41.3935   -1.3120 O   0  0  0  0  0  0  0  0  0  0  0  0
   35.7969   38.6495    1.2203 C   0  0  1  0  0  0  0  0  0  0  0  0
   36.7315   39.2272    2.1355 O   0  0  0  0  0  0  0  0  0  0  0  0
   41.6787   40.7372   -4.3408 C   0  0  2  0  0  0  0  0  0  0  0  0
   42.1693   41.5625   -3.2810 O   0  0  0  0  0  0  0  0  0  0  0  0
   37.3140   40.3776   -5.3554 C   0  0  2  0  0  0  0  0  0  0  0  0
   35.2246   43.5973   -2.3013 C   0  0  2  0  0  0  0  0  0  0  0  0
   35.7551   43.3319   -3.6179 O   0  0  0  0  0  0  0  0  0  0  0  0
   34.3990   38.7163    1.8376 C   0  0  2  0  0  0  0  0  0  0  0  0
   33.5011   37.9469    1.0327 O   0  0  0  0  0  0  0  0  0  0  0  0
   40.5304   41.4487   -5.0582 C   0  0  2  0  0  0  0  0  0  0  0  0
   40.0045   40.6114   -6.1068 O   0  0  0  0  0  0  0  0  0  0  0  0
   37.7825   41.8048   -5.6314 C   0  0  2  0  0  0  0  0  0  0  0  0
   37.8660   42.5263   -4.3915 O   0  0  0  0  0  0  0  0  0  0  0  0
   35.5259   45.0331   -1.8664 C   0  0  0  0  0  0  0  0  0  0  0  0
   34.9842   45.9374   -2.8318 O   0  0  0  0  0  0  0  0  0  0  0  0
   33.9486   40.1785    1.8927 C   0  0  1  0  0  0  0  0  0  0  0  0
   33.9188   40.6960    0.5508 O   0  0  0  0  0  0  0  0  0  0  0  0
   41.0867   42.7450   -5.6528 C   0  0  0  0  0  0  0  0  0  0  0  0
   41.0711   42.6739   -7.1211 O   0  0  0  0  0  0  0  0  0  0  0  0
   36.8238   42.5207   -6.5903 C   0  0  1  0  0  0  0  0  0  0  0  0
   37.3273   43.8210   -6.9047 O   0  0  0  0  0  0  0  0  0  0  0  0
   32.5625   40.3340    2.5196 C   0  0  0  0  0  0  0  0  0  0  0  0
   32.6489   40.0555    3.9599 N   0  0  0  0  0  0  0  0  0  0  0  0
  1  2  1  1  0  0  0
  1  7  1  0  0  0  0
  1 30  1  0  0  0  0
  3  4  1  6  0  0  0
  3  9  1  0  0  0  0
  3 39  1  0  0  0  0
  5 10  1  0  0  0  0
  5 26  1  0  0  0  0
  5 32  1  6  0  0  0
  6 12  1  0  0  0  0
  6 36  1  0  0  0  0
  6 19  1  6  0  0  0
  7  8  1  1  0  0  0
  7 14  1  0  0  0  0
  9 16  1  0  0  0  0
 10 11  1  1  0  0  0
 10 18  1  0  0  0  0
 12 13  1  6  0  0  0
 12 20  1  0  0  0  0
 14 15  1  6  0  0  0
 14 22  1  0  0  0  0
 16 17  1  1  0  0  0
 16 24  1  0  0  0  0
 18 19  1  6  0  0  0
 18 25  1  0  0  0  0
 20 21  1  1  0  0  0
 20 27  1  0  0  0  0
 22 23  1  1  0  0  0
 22 29  1  0  0  0  0
 24  2  1  6  0  0  0
 24 31  1  0  0  0  0
 25 26  1  0  0  0  0
 25 33  1  1  0  0  0
 27 28  1  6  0  0  0
 27 35  1  0  0  0  0
 29 30  1  0  0  0  0
 29 37  1  6  0  0  0
 31 32  1  1  0  0  0
 31 39  1  0  0  0  0
 33 34  1  0  0  0  0
 35 36  1  0  0  0  0
 35 41  1  6  0  0  0
 37 38  1  0  0  0  0
 39 40  1  6  0  0  0
 41 42  1  0  0  0  0
M  END
>  <CHROM.1>
178.66453746,149.38937902,-121.68583987,102.95426321,56.25250576,174.89290993
113.00875350,-43.06633250,70.78612734,37.18527504,40.94966821,-3.10002768
-0.83499190,-0.57944760,2.17596556

>  <Name>
3c44_lig

>  <RI>
224

>  <Rbt.Current_Directory>
/home/itssahil/PROJECTS/Mol_Feturizer/New_Systems/rnas/3c44

>  <Rbt.Executable>
rbdock ($Id: //depot/dev/client3/rdock/2013.1/src/exe/rbdock.cxx#4 $)

>  <Rbt.Library>
libRbt.so (2013.1, Build901 2013/11/27)

>  <Rbt.Parameter_File>
/export/apps/rDock/src/rDock_2013.1_src/data/scripts/dock_solv.prm

>  <Rbt.Receptor>
prm/blind_docking_60.prm

>  <SCORE>
-5.30431

>  <SCORE.INTER>
-19.163

>  <SCORE.INTER.CONST>
1

>  <SCORE.INTER.POLAR>
-1.61076

>  <SCORE.INTER.ROT>
9

>  <SCORE.INTER.SOLV>
25.5321

>  <SCORE.INTER.VDW>
-25.5169

>  <SCORE.INTER.norm>
-0.456263

>  <SCORE.INTRA>
8.30287

>  <SCORE.INTRA.DIHEDRAL>
8.79763

>  <SCORE.INTRA.DIHEDRAL.0>
14.8538

>  <SCORE.INTRA.POLAR>
0

>  <SCORE.INTRA.POLAR.0>
0

>  <SCORE.INTRA.REPUL>
0

>  <SCORE.INTRA.REPUL.0>
0

>  <SCORE.INTRA.SOLV>
-3.77332

>  <SCORE.INTRA.SOLV.lig_0>
-100.951

>  <SCORE.INTRA.VDW>
5.79071

>  <SCORE.INTRA.VDW.0>
-5.71388

>  <SCORE.INTRA.norm>
0.197687

>  <SCORE.RESTR>
5.55586

>  <SCORE.RESTR.CAVITY>
5.55586

>  <SCORE.RESTR.norm>
0.132282

>  <SCORE.SYSTEM>
0

>  <SCORE.SYSTEM.CONST>
0

>  <SCORE.SYSTEM.DIHEDRAL>
0

>  <SCORE.SYSTEM.SOLV>
0

>  <SCORE.SYSTEM.norm>
0

>  <SCORE.heavy>
42

>  <SCORE.norm>
-0.126293

>  <RMSD>
12.952

$$$$
3c44_lig
 OpenBabel11021811463D
libRbt.so/2013.1/901 2013/11/27
 42 45  0  0  0  0  0  0  0  0999 V2000
   39.0113   40.0709   -6.2581 C   0  0  2  0  0  0  0  0  0  0  0  0
   37.8367   40.3706   -5.4886 O   0  0  0  0  0  0  0  0  0  0  0  0
   37.1796   43.4984   -8.1296 C   0  0  2  0  0  0  0  0  0  0  0  0
   36.7522   44.6229   -8.9762 N   0  0  0  0  0  0  0  0  0  0  0  0
   36.8916   42.4640   -3.6333 C   0  0  1  0  0  0  0  0  0  0  0  0
   35.7745   40.3949   -0.2415 C   0  0  1  0  0  0  0  0  0  0  0  0
   39.7837   38.9388   -5.5727 C   0  0  2  0  0  0  0  0  0  0  0  0
   38.9180   37.7708   -5.3549 N   0  0  0  0  0  0  0  0  0  0  0  0
   36.1897   42.3349   -8.2377 C   0  0  0  0  0  0  0  0  0  0  0  0
   37.1340   42.7716   -2.1549 C   0  0  2  0  0  0  0  0  0  0  0  0
   38.1454   41.9061   -1.6356 O   0  0  0  0  0  0  0  0  0  0  0  0
   35.8636   38.8663   -0.2962 C   0  0  2  0  0  0  0  0  0  0  0  0
   34.7041   38.3629   -1.0454 N   0  0  0  0  0  0  0  0  0  0  0  0
   40.3592   39.3918   -4.2285 C   0  0  1  0  0  0  0  0  0  0  0  0
   41.1995   38.3594   -3.7038 O   0  0  0  0  0  0  0  0  0  0  0  0
   36.7745   41.1512   -7.4600 C   0  0  2  0  0  0  0  0  0  0  0  0
   35.8215   40.0314   -7.4894 N   0  0  0  0  0  0  0  0  0  0  0  0
   35.7830   42.3507   -1.5800 C   0  0  2  0  0  0  0  0  0  0  0  0
   35.6527   40.9196   -1.5753 O   0  0  0  0  0  0  0  0  0  0  0  0
   35.8446   38.2597    1.1130 C   0  0  1  0  0  0  0  0  0  0  0  0
   37.0710   38.5392    1.7934 O   0  0  0  0  0  0  0  0  0  0  0  0
   41.1779   40.6700   -4.4186 C   0  0  2  0  0  0  0  0  0  0  0  0
   41.6213   41.1502   -3.1467 O   0  0  0  0  0  0  0  0  0  0  0  0
   37.0935   41.4914   -5.9988 C   0  0  2  0  0  0  0  0  0  0  0  0
   34.8433   42.9436   -2.6180 C   0  0  2  0  0  0  0  0  0  0  0  0
   35.5589   42.9533   -3.8722 O   0  0  0  0  0  0  0  0  0  0  0  0
   34.6858   38.8221    1.9379 C   0  0  2  0  0  0  0  0  0  0  0  0
   33.4533   38.3558    1.3813 O   0  0  0  0  0  0  0  0  0  0  0  0
   40.3151   41.7342   -5.0986 C   0  0  2  0  0  0  0  0  0  0  0  0
   39.8335   41.2479   -6.3669 O   0  0  0  0  0  0  0  0  0  0  0  0
   37.8831   42.7856   -5.8141 C   0  0  2  0  0  0  0  0  0  0  0  0
   37.8733   43.1549   -4.4255 O   0  0  0  0  0  0  0  0  0  0  0  0
   34.4496   44.3616   -2.1986 C   0  0  0  0  0  0  0  0  0  0  0  0
   33.8411   44.3148   -0.9061 O   0  0  0  0  0  0  0  0  0  0  0  0
   34.7445   40.3515    1.9008 C   0  0  1  0  0  0  0  0  0  0  0  0
   34.6263   40.7780    0.5320 O   0  0  0  0  0  0  0  0  0  0  0  0
   41.1880   42.9737   -5.3106 C   0  0  0  0  0  0  0  0  0  0  0  0
   41.7903   42.9432   -6.6512 O   0  0  0  0  0  0  0  0  0  0  0  0
   37.2877   43.9167   -6.6610 C   0  0  1  0  0  0  0  0  0  0  0  0
   38.0927   45.0919   -6.5428 O   0  0  0  0  0  0  0  0  0  0  0  0
   33.6267   40.9939    2.7231 C   0  0  0  0  0  0  0  0  0  0  0  0
   33.7420   40.5564    4.1213 N   0  0  0  0  0  0  0  0  0  0  0  0
  1  2  1  1  0  0  0
  1  7  1  0  0  0  0
  1 30  1  0  0  0  0
  3  4  1  6  0  0  0
  3  9  1  0  0  0  0
  3 39  1  0  0  0  0
  5 10  1  0  0  0  0
  5 26  1  0  0  0  0
  5 32  1  6  0  0  0
  6 12  1  0  0  0  0
  6 36  1  0  0  0  0
  6 19  1  6  0  0  0
  7  8  1  1  0  0  0
  7 14  1  0  0  0  0
  9 16  1  0  0  0  0
 10 11  1  1  0  0  0
 10 18  1  0  0  0  0
 12 13  1  6  0  0  0
 12 20  1  0  0  0  0
 14 15  1  6  0  0  0
 14 22  1  0  0  0  0
 16 17  1  1  0  0  0
 16 24  1  0  0  0  0
 18 19  1  6  0  0  0
 18 25  1  0  0  0  0
 20 21  1  1  0  0  0
 20 27  1  0  0  0  0
 22 23  1  1  0  0  0
 22 29  1  0  0  0  0
 24  2  1  6  0  0  0
 24 31  1  0  0  0  0
 25 26  1  0  0  0  0
 25 33  1  1  0  0  0
 27 28  1  6  0  0  0
 27 35  1  0  0  0  0
 29 30  1  0  0  0  0
 29 37  1  6  0  0  0
 31 32  1  1  0  0  0
 31 39  1  0  0  0  0
 33 34  1  0  0  0  0
 35 36  1  0  0  0  0
 35 41  1  1  0  0  0
 37 38  1  0  0  0  0
 39 40  1  6  0  0  0
 41 42  1  0  0  0  0
M  END
>  <CHROM.1>
175.65427333,170.84886655,-170.70650768,106.45127755,55.98524790,-57.71787056
93.57218769,-14.90502762,59.61633745,37.17006608,41.27452377,-3.25347906
-0.98424735,-0.60533940,2.18996923

>  <Name>
3c44_lig

>  <RI>
0

>  <Rbt.Current_Directory>
/home/itssahil/PROJECTS/Mol_Feturizer/New_Systems/rnas/3c44

>  <Rbt.Executable>
rbdock ($Id: //depot/dev/client3/rdock/2013.1/src/exe/rbdock.cxx#4 $)

>  <Rbt.Library>
libRbt.so (2013.1, Build901 2013/11/27)

>  <Rbt.Parameter_File>
/export/apps/rDock/src/rDock_2013.1_src/data/scripts/dock_solv.prm

>  <Rbt.Receptor>
prm/blind_docking_80.prm

>  <SCORE>
-1.7313

>  <SCORE.INTER>
-13.6324

>  <SCORE.INTER.CONST>
1

>  <SCORE.INTER.POLAR>
-1.0141

>  <SCORE.INTER.ROT>
9

>  <SCORE.INTER.SOLV>
27.25

>  <SCORE.INTER.VDW>
-24.3912

>  <SCORE.INTER.norm>
-0.32458

>  <SCORE.INTRA>
8.3796

>  <SCORE.INTRA.DIHEDRAL>
1.68839

>  <SCORE.INTRA.DIHEDRAL.0>
14.8538

>  <SCORE.INTRA.POLAR>
0

>  <SCORE.INTRA.POLAR.0>
0

>  <SCORE.INTRA.REPUL>
0

>  <SCORE.INTRA.REPUL.0>
0

>  <SCORE.INTRA.SOLV>
-3.98947

>  <SCORE.INTRA.SOLV.lig_0>
-100.951

>  <SCORE.INTRA.VDW>
9.53014

>  <SCORE.INTRA.VDW.0>
-5.71388

>  <SCORE.INTRA.norm>
0.199514

>  <SCORE.RESTR>
3.52146

>  <SCORE.RESTR.CAVITY>
3.52146

>  <SCORE.RESTR.norm>
0.0838444

>  <SCORE.SYSTEM>
0

>  <SCORE.SYSTEM.CONST>
0

>  <SCORE.SYSTEM.DIHEDRAL>
0

>  <SCORE.SYSTEM.SOLV>
0

>  <SCORE.SYSTEM.norm>
0

>  <SCORE.heavy>
42

>  <SCORE.norm>
-0.0412213

>  <RMSD>
12.995

$$$$
3c44_lig
 OpenBabel11021811463D
libRbt.so/2013.1/901 2013/11/27
 42 45  0  0  0  0  0  0  0  0999 V2000
   38.1807   44.4303   -6.7601 C   0  0  2  0  0  0  0  0  0  0  0  0
   37.3890   43.4295   -7.4183 O   0  0  0  0  0  0  0  0  0  0  0  0
   36.4402   39.4166   -6.9877 C   0  0  2  0  0  0  0  0  0  0  0  0
   36.2079   38.0044   -6.6476 N   0  0  0  0  0  0  0  0  0  0  0  0
   35.3215   42.1851   -4.1354 C   0  0  1  0  0  0  0  0  0  0  0  0
   35.8053   40.7614   -0.3875 C   0  0  1  0  0  0  0  0  0  0  0  0
   37.9716   45.7761   -7.4623 C   0  0  2  0  0  0  0  0  0  0  0  0
   36.5430   46.1162   -7.5284 N   0  0  0  0  0  0  0  0  0  0  0  0
   37.9369   39.7393   -6.9594 C   0  0  0  0  0  0  0  0  0  0  0  0
   36.7287   42.4283   -3.5880 C   0  0  2  0  0  0  0  0  0  0  0  0
   37.6036   41.3790   -4.0067 O   0  0  0  0  0  0  0  0  0  0  0  0
   35.9941   39.3116    0.0711 C   0  0  2  0  0  0  0  0  0  0  0  0
   35.2901   38.4334   -0.8736 N   0  0  0  0  0  0  0  0  0  0  0  0
   38.5475   45.7596   -8.8804 C   0  0  1  0  0  0  0  0  0  0  0  0
   38.4719   47.0763   -9.4352 O   0  0  0  0  0  0  0  0  0  0  0  0
   38.1149   41.1725   -7.4716 C   0  0  2  0  0  0  0  0  0  0  0  0
   39.5369   41.5412   -7.4012 N   0  0  0  0  0  0  0  0  0  0  0  0
   36.4536   42.2730   -2.0937 C   0  0  2  0  0  0  0  0  0  0  0  0
   36.2298   40.8944   -1.7554 O   0  0  0  0  0  0  0  0  0  0  0  0
   35.4149   39.0950    1.4752 C   0  0  1  0  0  0  0  0  0  0  0  0
   36.2210   39.7548    2.4549 O   0  0  0  0  0  0  0  0  0  0  0  0
   40.0074   45.3040   -8.8426 C   0  0  2  0  0  0  0  0  0  0  0  0
   40.5081   45.1841  -10.1767 O   0  0  0  0  0  0  0  0  0  0  0  0
   37.2973   42.1996   -6.6783 C   0  0  2  0  0  0  0  0  0  0  0  0
   35.1494   43.0451   -1.9704 C   0  0  2  0  0  0  0  0  0  0  0  0
   34.4716   42.9255   -3.2399 O   0  0  0  0  0  0  0  0  0  0  0  0
   33.9867   39.6343    1.5698 C   0  0  2  0  0  0  0  0  0  0  0  0
   33.1332   38.8279    0.7529 O   0  0  0  0  0  0  0  0  0  0  0  0
   40.1037   43.9525   -8.1330 C   0  0  2  0  0  0  0  0  0  0  0  0
   39.5696   44.0527   -6.7981 O   0  0  0  0  0  0  0  0  0  0  0  0
   35.8357   41.8099   -6.4672 C   0  0  2  0  0  0  0  0  0  0  0  0
   35.2489   42.6785   -5.4845 O   0  0  0  0  0  0  0  0  0  0  0  0
   35.4524   44.5092   -1.6447 C   0  0  0  0  0  0  0  0  0  0  0  0
   35.9534   45.1549   -2.8173 O   0  0  0  0  0  0  0  0  0  0  0  0
   33.9704   41.0876    1.0886 C   0  0  1  0  0  0  0  0  0  0  0  0
   34.4184   41.1190   -0.2780 O   0  0  0  0  0  0  0  0  0  0  0  0
   41.5828   43.5619   -8.0769 C   0  0  0  0  0  0  0  0  0  0  0  0
   41.7989   42.5532   -7.0296 O   0  0  0  0  0  0  0  0  0  0  0  0
   35.7177   40.3501   -6.0131 C   0  0  1  0  0  0  0  0  0  0  0  0
   34.3409   39.9806   -5.9080 O   0  0  0  0  0  0  0  0  0  0  0  0
   32.5758   41.7094    1.1722 C   0  0  0  0  0  0  0  0  0  0  0  0
   32.5453   42.9387    0.3675 N   0  0  0  0  0  0  0  0  0  0  0  0
  1  2  1  6  0  0  0
  1  7  1  0  0  0  0
  1 30  1  0  0  0  0
  3  4  1  1  0  0  0
  3  9  1  0  0  0  0
  3 39  1  0  0  0  0
  5 10  1  0  0  0  0
  5 26  1  0  0  0  0
  5 32  1  6  0  0  0
  6 12  1  0  0  0  0
  6 36  1  0  0  0  0
  6 19  1  6  0  0  0
  7  8  1  6  0  0  0
  7 14  1  0  0  0  0
  9 16  1  0  0  0  0
 10 11  1  6  0  0  0
 10 18  1  0  0  0  0
 12 13  1  6  0  0  0
 12 20  1  0  0  0  0
 14 15  1  1  0  0  0
 14 22  1  0  0  0  0
 16 17  1  1  0  0  0
 16 24  1  0  0  0  0
 18 19  1  6  0  0  0
 18 25  1  0  0  0  0
 20 21  1  1  0  0  0
 20 27  1  0  0  0  0
 22 23  1  6  0  0  0
 22 29  1  0  0  0  0
 24  2  1  6  0  0  0
 24 31  1  0  0  0  0
 25 26  1  0  0  0  0
 25 33  1  6  0  0  0
 27 28  1  6  0  0  0
 27 35  1  0  0  0  0
 29 30  1  0  0  0  0
 29 37  1  1  0  0  0
 31 32  1  1  0  0  0
 31 39  1  0  0  0  0
 33 34  1  0  0  0  0
 35 36  1  0  0  0  0
 35 41  1  6  0  0  0
 37 38  1  0  0  0  0
 39 40  1  6  0  0  0
 41 42  1  0  0  0  0
M  END
>  <CHROM.1>
-167.92678003,78.58364393,-162.49433831,-172.72613431,-109.99563488,73.92459462
160.18335890,-92.13139982,-164.39571702,36.67448209,42.19728987,-4.29840601
0.45778366,1.04963209,-0.10497407

>  <Name>
3c44_lig

>  <RI>
0

>  <Rbt.Current_Directory>
/home/itssahil/PROJECTS/Mol_Feturizer/New_Systems/rnas/3c44

>  <Rbt.Executable>
rbdock ($Id: //depot/dev/client3/rdock/2013.1/src/exe/rbdock.cxx#4 $)

>  <Rbt.Library>
libRbt.so (2013.1, Build901 2013/11/27)

>  <Rbt.Parameter_File>
/export/apps/rDock/src/rDock_2013.1_src/data/scripts/dock_solv.prm

>  <Rbt.Receptor>
prm/blind_docking_100.prm

>  <SCORE>
1.23922

>  <SCORE.INTER>
-10.2436

>  <SCORE.INTER.CONST>
1

>  <SCORE.INTER.POLAR>
-0.678066

>  <SCORE.INTER.ROT>
9

>  <SCORE.INTER.SOLV>
30.1707

>  <SCORE.INTER.VDW>
-24.2258

>  <SCORE.INTER.norm>
-0.243896

>  <SCORE.INTRA>
9.33294

>  <SCORE.INTRA.DIHEDRAL>
2.90992

>  <SCORE.INTRA.DIHEDRAL.0>
14.8538

>  <SCORE.INTRA.POLAR>
0

>  <SCORE.INTRA.POLAR.0>
0

>  <SCORE.INTRA.REPUL>
0

>  <SCORE.INTRA.REPUL.0>
0

>  <SCORE.INTRA.SOLV>
2.64482

>  <SCORE.INTRA.SOLV.lig_0>
-100.951

>  <SCORE.INTRA.VDW>
6.55557

>  <SCORE.INTRA.VDW.0>
-5.71388

>  <SCORE.INTRA.norm>
0.222213

>  <SCORE.RESTR>
2.14991

>  <SCORE.RESTR.CAVITY>
2.14991

>  <SCORE.RESTR.norm>
0.0511883

>  <SCORE.SYSTEM>
0

>  <SCORE.SYSTEM.CONST>
0

>  <SCORE.SYSTEM.DIHEDRAL>
0

>  <SCORE.SYSTEM.SOLV>
0

>  <SCORE.SYSTEM.norm>
0

>  <SCORE.heavy>
42

>  <SCORE.norm>
0.0295052

>  <RMSD>
13.037

$$$$
3c44_lig
 OpenBabel11021811463D
libRbt.so/2013.1/901 2013/11/27
 42 45  0  0  0  0  0  0  0  0999 V2000
   36.5400   40.0891   -6.2855 C   0  0  2  0  0  0  0  0  0  0  0  0
   36.1034   41.2360   -5.5400 O   0  0  0  0  0  0  0  0  0  0  0  0
   38.4232   44.2219   -7.2407 C   0  0  2  0  0  0  0  0  0  0  0  0
   39.0625   45.3551   -7.9269 N   0  0  0  0  0  0  0  0  0  0  0  0
   35.5753   42.9860   -3.4028 C   0  0  1  0  0  0  0  0  0  0  0  0
   35.5938   40.3394   -0.0601 C   0  0  1  0  0  0  0  0  0  0  0  0
   35.6494   38.8933   -5.9320 C   0  0  2  0  0  0  0  0  0  0  0  0
   34.2307   39.2167   -6.1412 N   0  0  0  0  0  0  0  0  0  0  0  0
   37.6283   43.3688   -8.2334 C   0  0  0  0  0  0  0  0  0  0  0  0
   36.2875   43.2686   -2.0791 C   0  0  2  0  0  0  0  0  0  0  0  0
   37.6007   42.7060   -2.1015 O   0  0  0  0  0  0  0  0  0  0  0  0
   35.8255   38.8427   -0.2921 C   0  0  2  0  0  0  0  0  0  0  0  0
   34.8587   38.3761   -1.2954 N   0  0  0  0  0  0  0  0  0  0  0  0
   35.8535   38.4573   -4.4790 C   0  0  1  0  0  0  0  0  0  0  0  0
   35.1255   37.2484   -4.2430 O   0  0  0  0  0  0  0  0  0  0  0  0
   37.1237   42.1306   -7.4848 C   0  0  2  0  0  0  0  0  0  0  0  0
   36.3020   41.3151   -8.3919 N   0  0  0  0  0  0  0  0  0  0  0  0
   35.4143   42.4433   -1.1362 C   0  0  2  0  0  0  0  0  0  0  0  0
   35.6537   41.0378   -1.3161 O   0  0  0  0  0  0  0  0  0  0  0  0
   35.6218   38.0437    1.0018 C   0  0  1  0  0  0  0  0  0  0  0  0
   36.6857   38.3031    1.9214 O   0  0  0  0  0  0  0  0  0  0  0  0
   37.3409   38.2185   -4.2128 C   0  0  2  0  0  0  0  0  0  0  0  0
   37.5392   37.9190   -2.8286 O   0  0  0  0  0  0  0  0  0  0  0  0
   36.2942   42.4768   -6.2420 C   0  0  2  0  0  0  0  0  0  0  0  0
   34.0310   42.7948   -1.6606 C   0  0  2  0  0  0  0  0  0  0  0  0
   34.1782   43.0806   -3.0684 O   0  0  0  0  0  0  0  0  0  0  0  0
   34.2949   38.4082    1.6697 C   0  0  2  0  0  0  0  0  0  0  0  0
   33.2206   37.9463    0.8459 O   0  0  0  0  0  0  0  0  0  0  0  0
   38.1356   39.4704   -4.5878 C   0  0  2  0  0  0  0  0  0  0  0  0
   37.9159   39.8023   -5.9730 O   0  0  0  0  0  0  0  0  0  0  0  0
   36.9391   43.5156   -5.3269 C   0  0  2  0  0  0  0  0  0  0  0  0
   35.9697   43.9743   -4.3704 O   0  0  0  0  0  0  0  0  0  0  0  0
   33.4937   44.0126   -0.9057 C   0  0  0  0  0  0  0  0  0  0  0  0
   32.1401   44.2473   -1.3001 O   0  0  0  0  0  0  0  0  0  0  0  0
   34.2238   39.9281    1.8389 C   0  0  1  0  0  0  0  0  0  0  0  0
   34.3018   40.5347    0.5369 O   0  0  0  0  0  0  0  0  0  0  0  0
   39.6174   39.1680   -4.3508 C   0  0  0  0  0  0  0  0  0  0  0  0
   40.0106   37.9606   -5.0914 O   0  0  0  0  0  0  0  0  0  0  0  0
   37.4771   44.7011   -6.1368 C   0  0  1  0  0  0  0  0  0  0  0  0
   38.1540   45.6167   -5.2728 O   0  0  0  0  0  0  0  0  0  0  0  0
   32.9305   40.3746    2.5219 C   0  0  0  0  0  0  0  0  0  0  0  0
   32.9613   39.9631    3.9324 N   0  0  0  0  0  0  0  0  0  0  0  0
  1  2  1  1  0  0  0
  1  7  1  0  0  0  0
  1 30  1  0  0  0  0
  3  4  1  6  0  0  0
  3  9  1  0  0  0  0
  3 39  1  0  0  0  0
  5 10  1  0  0  0  0
  5 26  1  0  0  0  0
  5 32  1  6  0  0  0
  6 12  1  0  0  0  0
  6 36  1  0  0  0  0
  6 19  1  6  0  0  0
  7  8  1  1  0  0  0
  7 14  1  0  0  0  0
  9 16  1  0  0  0  0
 10 11  1  6  0  0  0
 10 18  1  0  0  0  0
 12 13  1  6  0  0  0
 12 20  1  0  0  0  0
 14 15  1  6  0  0  0
 14 22  1  0  0  0  0
 16 17  1  6  0  0  0
 16 24  1  0  0  0  0
 18 19  1  6  0  0  0
 18 25  1  0  0  0  0
 20 21  1  1  0  0  0
 20 27  1  0  0  0  0
 22 23  1  1  0  0  0
 22 29  1  0  0  0  0
 24  2  1  1  0  0  0
 24 31  1  0  0  0  0
 25 26  1  0  0  0  0
 25 33  1  1  0  0  0
 27 28  1  6  0  0  0
 27 35  1  0  0  0  0
 29 30  1  0  0  0  0
 29 37  1  6  0  0  0
 31 32  1  1  0  0  0
 31 39  1  0  0  0  0
 33 34  1  0  0  0  0
 35 36  1  0  0  0  0
 35 41  1  6  0  0  0
 37 38  1  0  0  0  0
 39 40  1  1  0  0  0
 41 42  1  0  0  0  0
M  END
>  <CHROM.1>
-147.68565849,102.44741302,178.88898538,143.10772507,-8.90182369,-173.75380086
54.96319233,68.35519918,70.09763386,36.00531746,40.99157518,-3.08640435,-0.73457611
-1.06166616,2.70644210

>  <Name>
3c44_lig

>  <RI>
0

>  <Rbt.Current_Directory>
/home/itssahil/PROJECTS/Mol_Feturizer/New_Systems/rnas/3c44

>  <Rbt.Executable>
rbdock ($Id: //depot/dev/client3/rdock/2013.1/src/exe/rbdock.cxx#4 $)

>  <Rbt.Library>
libRbt.so (2013.1, Build901 2013/11/27)

>  <Rbt.Parameter_File>
/export/apps/rDock/src/rDock_2013.1_src/data/scripts/dock_solv.prm

>  <Rbt.Receptor>
prm/blind_docking_80.prm

>  <SCORE>
6.73445

>  <SCORE.INTER>
-14.7078

>  <SCORE.INTER.CONST>
1

>  <SCORE.INTER.POLAR>
-0.268471

>  <SCORE.INTER.ROT>
9

>  <SCORE.INTER.SOLV>
26.9732

>  <SCORE.INTER.VDW>
-27.5013

>  <SCORE.INTER.norm>
-0.350185

>  <SCORE.INTRA>
17.1486

>  <SCORE.INTRA.DIHEDRAL>
7.38301

>  <SCORE.INTRA.DIHEDRAL.0>
14.8538

>  <SCORE.INTRA.POLAR>
0

>  <SCORE.INTRA.POLAR.0>
0

>  <SCORE.INTRA.REPUL>
0.173741

>  <SCORE.INTRA.REPUL.0>
0

>  <SCORE.INTRA.SOLV>
0.372358

>  <SCORE.INTRA.SOLV.lig_0>
-100.951

>  <SCORE.INTRA.VDW>
12.4022

>  <SCORE.INTRA.VDW.0>
-5.71388

>  <SCORE.INTRA.norm>
0.4083

>  <SCORE.RESTR>
4.2936

>  <SCORE.RESTR.CAVITY>
4.2936

>  <SCORE.RESTR.norm>
0.102229

>  <SCORE.SYSTEM>
0

>  <SCORE.SYSTEM.CONST>
0

>  <SCORE.SYSTEM.DIHEDRAL>
0

>  <SCORE.SYSTEM.SOLV>
0

>  <SCORE.SYSTEM.norm>
0

>  <SCORE.heavy>
42

>  <SCORE.norm>
0.160344

>  <RMSD>
13.038

$$$$
3c44_lig
 OpenBabel11021811463D
libRbt.so/2013.1/901 2013/11/27
 42 45  0  0  0  0  0  0  0  0999 V2000
   35.4203   43.0270   -0.9703 C   0  0  2  0  0  0  0  0  0  0  0  0
   35.3490   42.0953   -2.0605 O   0  0  0  0  0  0  0  0  0  0  0  0
   39.4921   42.2233   -2.1478 C   0  0  2  0  0  0  0  0  0  0  0  0
   40.9490   42.0967   -2.3065 N   0  0  0  0  0  0  0  0  0  0  0  0
   37.0890   42.1636   -5.5715 C   0  0  1  0  0  0  0  0  0  0  0  0
   37.8004   39.9124   -6.3470 C   0  0  1  0  0  0  0  0  0  0  0  0
   34.0616   43.0762   -0.2637 C   0  0  2  0  0  0  0  0  0  0  0  0
   33.6365   41.7308    0.1487 N   0  0  0  0  0  0  0  0  0  0  0  0
   38.8911   40.9170   -1.6211 C   0  0  0  0  0  0  0  0  0  0  0  0
   36.0164   42.1343   -6.6613 C   0  0  2  0  0  0  0  0  0  0  0  0
   34.9693   41.2350   -6.2917 O   0  0  0  0  0  0  0  0  0  0  0  0
   39.1089   39.1826   -6.6677 C   0  0  2  0  0  0  0  0  0  0  0  0
   38.7825   37.9470   -7.3929 N   0  0  0  0  0  0  0  0  0  0  0  0
   32.9861   43.6851   -1.1669 C   0  0  1  0  0  0  0  0  0  0  0  0
   31.7808   43.8560   -0.4151 O   0  0  0  0  0  0  0  0  0  0  0  0
   37.4072   41.1688   -1.3333 C   0  0  2  0  0  0  0  0  0  0  0  0
   36.7800   39.9172   -0.8825 N   0  0  0  0  0  0  0  0  0  0  0  0
   36.8226   41.5102   -7.7986 C   0  0  2  0  0  0  0  0  0  0  0  0
   37.0494   40.1119   -7.5575 O   0  0  0  0  0  0  0  0  0  0  0  0
   39.8688   38.8189   -5.3854 C   0  0  1  0  0  0  0  0  0  0  0  0
   40.4035   39.9945   -4.7715 O   0  0  0  0  0  0  0  0  0  0  0  0
   33.4573   45.0422   -1.6928 C   0  0  2  0  0  0  0  0  0  0  0  0
   32.4993   45.5565   -2.6215 O   0  0  0  0  0  0  0  0  0  0  0  0
   36.6402   41.6958   -2.5525 C   0  0  2  0  0  0  0  0  0  0  0  0
   38.1327   42.2694   -7.6587 C   0  0  2  0  0  0  0  0  0  0  0  0
   38.2692   42.6131   -6.2627 O   0  0  0  0  0  0  0  0  0  0  0  0
   38.9516   38.1152   -4.3838 C   0  0  2  0  0  0  0  0  0  0  0  0
   38.5925   36.8334   -4.9075 O   0  0  0  0  0  0  0  0  0  0  0  0
   34.8112   44.8808   -2.3857 C   0  0  2  0  0  0  0  0  0  0  0  0
   35.7768   44.3301   -1.4683 O   0  0  0  0  0  0  0  0  0  0  0  0
   37.3232   42.8591   -3.2685 C   0  0  2  0  0  0  0  0  0  0  0  0
   36.6849   43.0777   -4.5372 O   0  0  0  0  0  0  0  0  0  0  0  0
   38.0902   43.5250   -8.5324 C   0  0  0  0  0  0  0  0  0  0  0  0
   37.0646   44.3957   -8.0499 O   0  0  0  0  0  0  0  0  0  0  0  0
   37.7023   38.9727   -4.1653 C   0  0  1  0  0  0  0  0  0  0  0  0
   37.0283   39.1242   -5.4271 O   0  0  0  0  0  0  0  0  0  0  0  0
   35.2629   46.2674   -2.8510 C   0  0  0  0  0  0  0  0  0  0  0  0
   35.2302   47.2126   -1.7256 O   0  0  0  0  0  0  0  0  0  0  0  0
   38.8158   42.5753   -3.4752 C   0  0  1  0  0  0  0  0  0  0  0  0
   39.4524   43.7110   -4.0651 O   0  0  0  0  0  0  0  0  0  0  0  0
   36.7393   38.3461   -3.1560 C   0  0  0  0  0  0  0  0  0  0  0  0
   36.1085   37.1638   -3.7590 N   0  0  0  0  0  0  0  0  0  0  0  0
  1  2  1  6  0  0  0
  1  7  1  0  0  0  0
  1 30  1  0  0  0  0
  3  4  1  6  0  0  0
  3  9  1  0  0  0  0
  3 39  1  0  0  0  0
  5 10  1  0  0  0  0
  5 26  1  0  0  0  0
  5 32  1  1  0  0  0
  6 12  1  0  0  0  0
  6 36  1  0  0  0  0
  6 19  1  6  0  0  0
  7  8  1  6  0  0  0
  7 14  1  0  0  0  0
  9 16  1  0  0  0  0
 10 11  1  1  0  0  0
 10 18  1  0  0  0  0
 12 13  1  1  0  0  0
 12 20  1  0  0  0  0
 14 15  1  1  0  0  0
 14 22  1  0  0  0  0
 16 17  1  6  0  0  0
 16 24  1  0  0  0  0
 18 19  1  1  0  0  0
 18 25  1  0  0  0  0
 20 21  1  1  0  0  0
 20 27  1  0  0  0  0
 22 23  1  6  0  0  0
 22 29  1  0  0  0  0
 24  2  1  1  0  0  0
 24 31  1  0  0  0  0
 25 26  1  0  0  0  0
 25 33  1  6  0  0  0
 27 28  1  6  0  0  0
 27 35  1  0  0  0  0
 29 30  1  0  0  0  0
 29 37  1  1  0  0  0
 31 32  1  6  0  0  0
 31 39  1  0  0  0  0
 33 34  1  0  0  0  0
 35 36  1  0  0  0  0
 35 41  1  1  0  0  0
 37 38  1  0  0  0  0
 39 40  1  1  0  0  0
 41 42  1  0  0  0  0
M  END
>  <CHROM.1>
-163.76402005,158.84919968,-120.22855998,-61.07050785,54.50823267,63.90221566
53.00887397,-79.39191497,-71.06888624,36.81854000,41.82600589,-3.93320354
-3.11525864,0.99450005,-0.85562646

>  <Name>
3c44_lig

>  <RI>
224

>  <Rbt.Current_Directory>
/home/itssahil/PROJECTS/Mol_Feturizer/New_Systems/rnas/3c44

>  <Rbt.Executable>
rbdock ($Id: //depot/dev/client3/rdock/2013.1/src/exe/rbdock.cxx#4 $)

>  <Rbt.Library>
libRbt.so (2013.1, Build901 2013/11/27)

>  <Rbt.Parameter_File>
/export/apps/rDock/src/rDock_2013.1_src/data/scripts/dock_solv.prm

>  <Rbt.Receptor>
prm/blind_docking_60.prm

>  <SCORE>
13.2944

>  <SCORE.INTER>
-3.17229

>  <SCORE.INTER.CONST>
1

>  <SCORE.INTER.POLAR>
-0.65485

>  <SCORE.INTER.ROT>
9

>  <SCORE.INTER.SOLV>
25.6255

>  <SCORE.INTER.VDW>
-18.0739

>  <SCORE.INTER.norm>
-0.0755308

>  <SCORE.INTRA>
12.8142

>  <SCORE.INTRA.DIHEDRAL>
-1.48187

>  <SCORE.INTRA.DIHEDRAL.0>
14.8538

>  <SCORE.INTRA.POLAR>
0

>  <SCORE.INTRA.POLAR.0>
0

>  <SCORE.INTRA.REPUL>
0

>  <SCORE.INTRA.REPUL.0>
0

>  <SCORE.INTRA.SOLV>
3.85585

>  <SCORE.INTRA.SOLV.lig_0>
-100.951

>  <SCORE.INTRA.VDW>
11.6272

>  <SCORE.INTRA.VDW.0>
-5.71388

>  <SCORE.INTRA.norm>
0.305099

>  <SCORE.RESTR>
3.65254

>  <SCORE.RESTR.CAVITY>
3.65254

>  <SCORE.RESTR.norm>
0.0869652

>  <SCORE.SYSTEM>
0

>  <SCORE.SYSTEM.CONST>
0

>  <SCORE.SYSTEM.DIHEDRAL>
0

>  <SCORE.SYSTEM.SOLV>
0

>  <SCORE.SYSTEM.norm>
0

>  <SCORE.heavy>
42

>  <SCORE.norm>
0.316533

>  <RMSD>
13.062

$$$$
3c44_lig
 OpenBabel11021811463D
libRbt.so/2013.1/901 2013/11/27
 42 45  0  0  0  0  0  0  0  0999 V2000
   35.0644   40.3796    1.3301 C   0  0  2  0  0  0  0  0  0  0  0  0
   34.4419   40.7429    0.0883 O   0  0  0  0  0  0  0  0  0  0  0  0
   32.9005   44.1050   -1.7851 C   0  0  2  0  0  0  0  0  0  0  0  0
   32.4201   45.4057   -2.2764 N   0  0  0  0  0  0  0  0  0  0  0  0
   37.0799   41.7540   -1.9080 C   0  0  1  0  0  0  0  0  0  0  0  0
   37.8926   40.3362   -5.5590 C   0  0  1  0  0  0  0  0  0  0  0  0
   35.8720   39.0931    1.1280 C   0  0  2  0  0  0  0  0  0  0  0  0
   36.8275   39.2428    0.0210 N   0  0  0  0  0  0  0  0  0  0  0  0
   32.3036   43.7938   -0.4096 C   0  0  0  0  0  0  0  0  0  0  0  0
   37.5696   42.4488   -3.1795 C   0  0  2  0  0  0  0  0  0  0  0  0
   36.5315   42.4584   -4.1613 O   0  0  0  0  0  0  0  0  0  0  0  0
   37.2136   39.0614   -6.0705 C   0  0  2  0  0  0  0  0  0  0  0  0
   37.9978   37.9058   -5.6136 N   0  0  0  0  0  0  0  0  0  0  0  0
   34.9565   37.9006    0.8402 C   0  0  1  0  0  0  0  0  0  0  0  0
   35.7375   36.7018    0.8169 O   0  0  0  0  0  0  0  0  0  0  0  0
   32.7189   42.3678   -0.0327 C   0  0  2  0  0  0  0  0  0  0  0  0
   32.2144   42.0538    1.3126 N   0  0  0  0  0  0  0  0  0  0  0  0
   38.6488   41.4590   -3.6137 C   0  0  2  0  0  0  0  0  0  0  0  0
   38.0599   40.2553   -4.1326 O   0  0  0  0  0  0  0  0  0  0  0  0
   37.1518   39.0439   -7.6034 C   0  0  1  0  0  0  0  0  0  0  0  0
   36.2123   40.0126   -8.0763 O   0  0  0  0  0  0  0  0  0  0  0  0
   33.8869   37.7927    1.9285 C   0  0  2  0  0  0  0  0  0  0  0  0
   32.9691   36.7470    1.5981 O   0  0  0  0  0  0  0  0  0  0  0  0
   34.2384   42.1598   -0.0526 C   0  0  2  0  0  0  0  0  0  0  0  0
   39.3104   41.1661   -2.2764 C   0  0  2  0  0  0  0  0  0  0  0  0
   38.2926   41.3214   -1.2639 O   0  0  0  0  0  0  0  0  0  0  0  0
   38.5214   39.3495   -8.2122 C   0  0  2  0  0  0  0  0  0  0  0  0
   39.4079   38.2647   -7.9236 O   0  0  0  0  0  0  0  0  0  0  0  0
   33.1360   39.1203    2.0417 C   0  0  2  0  0  0  0  0  0  0  0  0
   34.0565   40.1883    2.3404 O   0  0  0  0  0  0  0  0  0  0  0  0
   34.9257   42.6760   -1.3150 C   0  0  2  0  0  0  0  0  0  0  0  0
   36.3474   42.6981   -1.1075 O   0  0  0  0  0  0  0  0  0  0  0  0
   40.4633   42.1469   -2.0521 C   0  0  0  0  0  0  0  0  0  0  0  0
   41.0624   41.8815   -0.7818 O   0  0  0  0  0  0  0  0  0  0  0  0
   39.0551   40.6513   -7.6087 C   0  0  1  0  0  0  0  0  0  0  0  0
   39.1773   40.4764   -6.1861 O   0  0  0  0  0  0  0  0  0  0  0  0
   32.1127   38.9801    3.1716 C   0  0  0  0  0  0  0  0  0  0  0  0
   32.7961   38.9733    4.4731 O   0  0  0  0  0  0  0  0  0  0  0  0
   34.4272   44.0806   -1.6752 C   0  0  1  0  0  0  0  0  0  0  0  0
   35.0153   44.5075   -2.9060 O   0  0  0  0  0  0  0  0  0  0  0  0
   40.4177   41.0400   -8.1837 C   0  0  0  0  0  0  0  0  0  0  0  0
   40.8102   42.3529   -7.6528 N   0  0  0  0  0  0  0  0  0  0  0  0
  1  2  1  6  0  0  0
  1  7  1  0  0  0  0
  1 30  1  0  0  0  0
  3  4  1  1  0  0  0
  3  9  1  0  0  0  0
  3 39  1  0  0  0  0
  5 10  1  0  0  0  0
  5 26  1  0  0  0  0
  5 32  1  1  0  0  0
  6 12  1  0  0  0  0
  6 36  1  0  0  0  0
  6 19  1  1  0  0  0
  7  8  1  6  0  0  0
  7 14  1  0  0  0  0
  9 16  1  0  0  0  0
 10 11  1  6  0  0  0
 10 18  1  0  0  0  0
 12 13  1  6  0  0  0
 12 20  1  0  0  0  0
 14 15  1  1  0  0  0
 14 22  1  0  0  0  0
 16 17  1  1  0  0  0
 16 24  1  0  0  0  0
 18 19  1  1  0  0  0
 18 25  1  0  0  0  0
 20 21  1  6  0  0  0
 20 27  1  0  0  0  0
 22 23  1  6  0  0  0
 22 29  1  0  0  0  0
 24  2  1  6  0  0  0
 24 31  1  0  0  0  0
 25 26  1  0  0  0  0
 25 33  1  1  0  0  0
 27 28  1  1  0  0  0
 27 35  1  0  0  0  0
 29 30  1  0  0  0  0
 29 37  1  1  0  0  0
 31 32  1  1  0  0  0
 31 39  1  0  0  0  0
 33 34  1  0  0  0  0
 35 36  1  0  0  0  0
 35 41  1  6  0  0  0
 37 38  1  0  0  0  0
 39 40  1  6  0  0  0
 41 42  1  0  0  0  0
M  END
>  <CHROM.1>
-151.02851343,94.55123082,-177.80255983,92.34149542,-112.96976479,178.87574324
72.38874961,112.62045797,174.94058972,36.21275239,40.76879745,-2.18802911
-2.64722079,0.89886044,-0.56318250

>  <Name>
3c44_lig

>  <RI>
0

>  <Rbt.Current_Directory>
/home/itssahil/PROJECTS/Mol_Feturizer/New_Systems/rnas/3c44

>  <Rbt.Executable>
rbdock ($Id: //depot/dev/client3/rdock/2013.1/src/exe/rbdock.cxx#4 $)

>  <Rbt.Library>
libRbt.so (2013.1, Build901 2013/11/27)

>  <Rbt.Parameter_File>
/export/apps/rDock/src/rDock_2013.1_src/data/scripts/dock_solv.prm

>  <Rbt.Receptor>
prm/blind_docking_80.prm

>  <SCORE>
5.0328

>  <SCORE.INTER>
-8.33561

>  <SCORE.INTER.CONST>
1

>  <SCORE.INTER.POLAR>
-0.608004

>  <SCORE.INTER.ROT>
9

>  <SCORE.INTER.SOLV>
19.5145

>  <SCORE.INTER.VDW>
-19.6352

>  <SCORE.INTER.norm>
-0.198467

>  <SCORE.INTRA>
5.84023

>  <SCORE.INTRA.DIHEDRAL>
11.4785

>  <SCORE.INTRA.DIHEDRAL.0>
14.8538

>  <SCORE.INTRA.POLAR>
0

>  <SCORE.INTRA.POLAR.0>
0

>  <SCORE.INTRA.REPUL>
0.00353959

>  <SCORE.INTRA.REPUL.0>
0

>  <SCORE.INTRA.SOLV>
0.0275233

>  <SCORE.INTRA.SOLV.lig_0>
-100.951

>  <SCORE.INTRA.VDW>
0.0695101

>  <SCORE.INTRA.VDW.0>
-5.71388

>  <SCORE.INTRA.norm>
0.139053

>  <SCORE.RESTR>
7.52818

>  <SCORE.RESTR.CAVITY>
7.52818

>  <SCORE.RESTR.norm>
0.179242

>  <SCORE.SYSTEM>
0

>  <SCORE.SYSTEM.CONST>
0

>  <SCORE.SYSTEM.DIHEDRAL>
0

>  <SCORE.SYSTEM.SOLV>
0

>  <SCORE.SYSTEM.norm>
0

>  <SCORE.heavy>
42

>  <SCORE.norm>
0.119828

>  <RMSD>
13.087

$$$$
3c44_lig
 OpenBabel11021811463D
libRbt.so/2013.1/901 2013/11/27
 42 45  0  0  0  0  0  0  0  0999 V2000
   39.2149   40.1944   -5.9349 C   0  0  2  0  0  0  0  0  0  0  0  0
   37.9583   40.3521   -5.2583 O   0  0  0  0  0  0  0  0  0  0  0  0
   37.2280   43.5246   -7.8256 C   0  0  2  0  0  0  0  0  0  0  0  0
   36.7726   44.6549   -8.6496 N   0  0  0  0  0  0  0  0  0  0  0  0
   36.8160   42.4450   -3.3900 C   0  0  1  0  0  0  0  0  0  0  0  0
   35.6425   40.3470   -0.1280 C   0  0  1  0  0  0  0  0  0  0  0  0
   39.9094   38.9319   -5.4138 C   0  0  2  0  0  0  0  0  0  0  0  0
   39.0304   37.7603   -5.5401 N   0  0  0  0  0  0  0  0  0  0  0  0
   36.2869   42.3271   -7.9849 C   0  0  0  0  0  0  0  0  0  0  0  0
   36.9955   42.7186   -1.8960 C   0  0  2  0  0  0  0  0  0  0  0  0
   37.9412   41.8019   -1.3420 O   0  0  0  0  0  0  0  0  0  0  0  0
   35.7706   38.8256   -0.2573 C   0  0  2  0  0  0  0  0  0  0  0  0
   34.5743   38.3184   -0.9433 N   0  0  0  0  0  0  0  0  0  0  0  0
   40.3247   39.0893   -3.9489 C   0  0  1  0  0  0  0  0  0  0  0  0
   41.1047   37.9559   -3.5559 O   0  0  0  0  0  0  0  0  0  0  0  0
   36.9032   41.1456   -7.2282 C   0  0  2  0  0  0  0  0  0  0  0  0
   35.9957   39.9910   -7.3070 N   0  0  0  0  0  0  0  0  0  0  0  0
   35.6002   42.3479   -1.3974 C   0  0  2  0  0  0  0  0  0  0  0  0
   35.4089   40.9239   -1.4249 O   0  0  0  0  0  0  0  0  0  0  0  0
   35.8716   38.1593    1.1211 C   0  0  1  0  0  0  0  0  0  0  0  0
   37.1359   38.4480    1.7237 O   0  0  0  0  0  0  0  0  0  0  0  0
   41.1533   40.3639   -3.7784 C   0  0  2  0  0  0  0  0  0  0  0  0
   41.4456   40.5652   -2.3931 O   0  0  0  0  0  0  0  0  0  0  0  0
   37.1812   41.4570   -5.7523 C   0  0  2  0  0  0  0  0  0  0  0  0
   34.7408   42.9973   -2.4706 C   0  0  2  0  0  0  0  0  0  0  0  0
   35.5193   42.9955   -3.6869 O   0  0  0  0  0  0  0  0  0  0  0  0
   34.7605   38.6493    2.0512 C   0  0  2  0  0  0  0  0  0  0  0  0
   33.5045   38.1686    1.5640 O   0  0  0  0  0  0  0  0  0  0  0  0
   40.3687   41.5606   -4.3184 C   0  0  2  0  0  0  0  0  0  0  0  0
   40.0381   41.3533   -5.7058 O   0  0  0  0  0  0  0  0  0  0  0  0
   37.9157   42.7753   -5.5170 C   0  0  2  0  0  0  0  0  0  0  0  0
   37.8655   43.1049   -4.1193 O   0  0  0  0  0  0  0  0  0  0  0  0
   34.3872   44.4243   -2.0463 C   0  0  0  0  0  0  0  0  0  0  0  0
   35.5754   45.2188   -2.0421 O   0  0  0  0  0  0  0  0  0  0  0  0
   34.7731   40.1800    2.0784 C   0  0  1  0  0  0  0  0  0  0  0  0
   34.5434   40.6604    0.7421 O   0  0  0  0  0  0  0  0  0  0  0  0
   41.2539   42.8008   -4.1711 C   0  0  0  0  0  0  0  0  0  0  0  0
   40.4272   44.0162   -4.1930 O   0  0  0  0  0  0  0  0  0  0  0  0
   37.2921   43.9056   -6.3443 C   0  0  1  0  0  0  0  0  0  0  0  0
   38.0479   45.1074   -6.1783 O   0  0  0  0  0  0  0  0  0  0  0  0
   33.7004   40.7513    3.0066 C   0  0  0  0  0  0  0  0  0  0  0  0
   33.7844   42.2184    2.9977 N   0  0  0  0  0  0  0  0  0  0  0  0
  1  2  1  1  0  0  0
  1  7  1  0  0  0  0
  1 30  1  0  0  0  0
  3  4  1  6  0  0  0
  3  9  1  0  0  0  0
  3 39  1  0  0  0  0
  5 10  1  0  0  0  0
  5 26  1  0  0  0  0
  5 32  1  6  0  0  0
  6 12  1  0  0  0  0
  6 36  1  0  0  0  0
  6 19  1  6  0  0  0
  7  8  1  1  0  0  0
  7 14  1  0  0  0  0
  9 16  1  0  0  0  0
 10 11  1  1  0  0  0
 10 18  1  0  0  0  0
 12 13  1  1  0  0  0
 12 20  1  0  0  0  0
 14 15  1  6  0  0  0
 14 22  1  0  0  0  0
 16 17  1  1  0  0  0
 16 24  1  0  0  0  0
 18 19  1  6  0  0  0
 18 25  1  0  0  0  0
 20 21  1  1  0  0  0
 20 27  1  0  0  0  0
 22 23  1  1  0  0  0
 22 29  1  0  0  0  0
 24  2  1  6  0  0  0
 24 31  1  0  0  0  0
 25 26  1  0  0  0  0
 25 33  1  1  0  0  0
 27 28  1  6  0  0  0
 27 35  1  0  0  0  0
 29 30  1  0  0  0  0
 29 37  1  6  0  0  0
 31 32  1  1  0  0  0
 31 39  1  0  0  0  0
 33 34  1  0  0  0  0
 35 36  1  0  0  0  0
 35 41  1  1  0  0  0
 37 38  1  0  0  0  0
 39 40  1  6  0  0  0
 41 42  1  0  0  0  0
M  END
>  <CHROM.1>
-175.51796467,171.88462927,-166.21487420,97.62318171,61.26906948,67.32442823
-159.17507564,-20.32780714,179.17632731,37.17785541,41.29189831,-2.99409860
-0.96616545,-0.68654871,2.26973901

>  <Name>
3c44_lig

>  <RI>
0

>  <Rbt.Current_Directory>
/home/itssahil/PROJECTS/Mol_Feturizer/New_Systems/rnas/3c44

>  <Rbt.Executable>
rbdock ($Id: //depot/dev/client3/rdock/2013.1/src/exe/rbdock.cxx#4 $)

>  <Rbt.Library>
libRbt.so (2013.1, Build901 2013/11/27)

>  <Rbt.Parameter_File>
/export/apps/rDock/src/rDock_2013.1_src/data/scripts/dock_solv.prm

>  <Rbt.Receptor>
prm/blind_docking_80.prm

>  <SCORE>
-4.80255

>  <SCORE.INTER>
-13.5011

>  <SCORE.INTER.CONST>
1

>  <SCORE.INTER.POLAR>
-0.950772

>  <SCORE.INTER.ROT>
9

>  <SCORE.INTER.SOLV>
28.032

>  <SCORE.INTER.VDW>
-24.7755

>  <SCORE.INTER.norm>
-0.321454

>  <SCORE.INTRA>
4.28712

>  <SCORE.INTRA.DIHEDRAL>
-1.54191

>  <SCORE.INTRA.DIHEDRAL.0>
14.8538

>  <SCORE.INTRA.POLAR>
0

>  <SCORE.INTRA.POLAR.0>
0

>  <SCORE.INTRA.REPUL>
0

>  <SCORE.INTRA.REPUL.0>
0

>  <SCORE.INTRA.SOLV>
-3.18257

>  <SCORE.INTRA.SOLV.lig_0>
-100.951

>  <SCORE.INTRA.VDW>
6.64936

>  <SCORE.INTRA.VDW.0>
-5.71388

>  <SCORE.INTRA.norm>
0.102074

>  <SCORE.RESTR>
4.41141

>  <SCORE.RESTR.CAVITY>
4.41141

>  <SCORE.RESTR.norm>
0.105034

>  <SCORE.SYSTEM>
0

>  <SCORE.SYSTEM.CONST>
0

>  <SCORE.SYSTEM.DIHEDRAL>
0

>  <SCORE.SYSTEM.SOLV>
0

>  <SCORE.SYSTEM.norm>
0

>  <SCORE.heavy>
42

>  <SCORE.norm>
-0.114346

>  <RMSD>
13.115

$$$$
3c44_lig
 OpenBabel11021811463D
libRbt.so/2013.1/901 2013/11/27
 42 45  0  0  0  0  0  0  0  0999 V2000
   37.9784   43.4255   -6.1340 C   0  0  2  0  0  0  0  0  0  0  0  0
   38.9989   42.7095   -5.4215 O   0  0  0  0  0  0  0  0  0  0  0  0
   38.8063   39.7172   -8.2848 C   0  0  2  0  0  0  0  0  0  0  0  0
   38.9479   38.6294   -9.2648 N   0  0  0  0  0  0  0  0  0  0  0  0
   38.2800   40.4026   -3.4677 C   0  0  1  0  0  0  0  0  0  0  0  0
   36.0012   40.0777    0.0154 C   0  0  1  0  0  0  0  0  0  0  0  0
   37.4243   44.5353   -5.2344 C   0  0  2  0  0  0  0  0  0  0  0  0
   38.5064   45.4009   -4.7434 N   0  0  0  0  0  0  0  0  0  0  0  0
   39.7873   40.8521   -8.5928 C   0  0  0  0  0  0  0  0  0  0  0  0
   38.5825   39.6602   -2.1652 C   0  0  2  0  0  0  0  0  0  0  0  0
   37.8428   38.4387   -2.1164 O   0  0  0  0  0  0  0  0  0  0  0  0
   36.0952   38.5484    0.0070 C   0  0  2  0  0  0  0  0  0  0  0  0
   35.4386   38.0523   -1.2103 N   0  0  0  0  0  0  0  0  0  0  0  0
   36.6662   43.9555   -4.0376 C   0  0  1  0  0  0  0  0  0  0  0  0
   36.0361   45.0199   -3.3184 O   0  0  0  0  0  0  0  0  0  0  0  0
   39.4786   42.0081   -7.6355 C   0  0  2  0  0  0  0  0  0  0  0  0
   40.4424   43.0961   -7.8600 N   0  0  0  0  0  0  0  0  0  0  0  0
   37.9782   40.6421   -1.1634 C   0  0  2  0  0  0  0  0  0  0  0  0
   36.5425   40.6016   -1.2101 O   0  0  0  0  0  0  0  0  0  0  0  0
   35.3937   37.9438    1.2303 C   0  0  1  0  0  0  0  0  0  0  0  0
   36.1407   38.2155    2.4191 O   0  0  0  0  0  0  0  0  0  0  0  0
   35.6038   42.9686   -4.5249 C   0  0  2  0  0  0  0  0  0  0  0  0
   34.9735   42.3477   -3.4014 O   0  0  0  0  0  0  0  0  0  0  0  0
   39.5325   41.5959   -6.1591 C   0  0  2  0  0  0  0  0  0  0  0  0
   38.4687   41.9615   -1.7383 C   0  0  2  0  0  0  0  0  0  0  0  0
   38.5990   41.7733   -3.1641 O   0  0  0  0  0  0  0  0  0  0  0  0
   33.9844   38.5154    1.3940 C   0  0  2  0  0  0  0  0  0  0  0  0
   33.1711   38.0572    0.3102 O   0  0  0  0  0  0  0  0  0  0  0  0
   36.2602   41.9013   -5.4020 C   0  0  2  0  0  0  0  0  0  0  0  0
   36.9287   42.5186   -6.5197 O   0  0  0  0  0  0  0  0  0  0  0  0
   38.7584   40.3197   -5.8356 C   0  0  2  0  0  0  0  0  0  0  0  0
   39.1094   39.8719   -4.5161 O   0  0  0  0  0  0  0  0  0  0  0  0
   39.8143   42.3242   -1.1064 C   0  0  0  0  0  0  0  0  0  0  0  0
   40.8055   41.3962   -1.5526 O   0  0  0  0  0  0  0  0  0  0  0  0
   34.0642   40.0443    1.3934 C   0  0  1  0  0  0  0  0  0  0  0  0
   34.6248   40.4699    0.1389 O   0  0  0  0  0  0  0  0  0  0  0  0
   35.1551   40.9683   -5.9035 C   0  0  0  0  0  0  0  0  0  0  0  0
   35.7394   39.8669   -6.6821 O   0  0  0  0  0  0  0  0  0  0  0  0
   39.0619   39.2198   -6.8598 C   0  0  1  0  0  0  0  0  0  0  0  0
   38.2613   38.0667   -6.5908 O   0  0  0  0  0  0  0  0  0  0  0  0
   32.6926   40.6956    1.5749 C   0  0  0  0  0  0  0  0  0  0  0  0
   32.8364   42.1560    1.4970 N   0  0  0  0  0  0  0  0  0  0  0  0
  1  2  1  1  0  0  0
  1  7  1  0  0  0  0
  1 30  1  0  0  0  0
  3  4  1  6  0  0  0
  3  9  1  0  0  0  0
  3 39  1  0  0  0  0
  5 10  1  0  0  0  0
  5 26  1  0  0  0  0
  5 32  1  6  0  0  0
  6 12  1  0  0  0  0
  6 36  1  0  0  0  0
  6 19  1  6  0  0  0
  7  8  1  1  0  0  0
  7 14  1  0  0  0  0
  9 16  1  0  0  0  0
 10 11  1  6  0  0  0
 10 18  1  0  0  0  0
 12 13  1  6  0  0  0
 12 20  1  0  0  0  0
 14 15  1  6  0  0  0
 14 22  1  0  0  0  0
 16 17  1  1  0  0  0
 16 24  1  0  0  0  0
 18 19  1  6  0  0  0
 18 25  1  0  0  0  0
 20 21  1  1  0  0  0
 20 27  1  0  0  0  0
 22 23  1  1  0  0  0
 22 29  1  0  0  0  0
 24  2  1  1  0  0  0
 24 31  1  0  0  0  0
 25 26  1  0  0  0  0
 25 33  1  1  0  0  0
 27 28  1  6  0  0  0
 27 35  1  0  0  0  0
 29 30  1  0  0  0  0
 29 37  1  6  0  0  0
 31 32  1  1  0  0  0
 31 39  1  0  0  0  0
 33 34  1  0  0  0  0
 35 36  1  0  0  0  0
 35 41  1  6  0  0  0
 37 38  1  0  0  0  0
 39 40  1  1  0  0  0
 41 42  1  0  0  0  0
M  END
>  <CHROM.1>
176.79578267,169.59982018,-79.95401325,113.36260390,32.63210949,68.21433216
-176.27307499,90.09948617,-177.18870383,37.12655734,40.91610473,-3.35749830
0.40785646,1.06342621,-0.21078537

>  <Name>
3c44_lig

>  <RI>
224

>  <Rbt.Current_Directory>
/home/itssahil/PROJECTS/Mol_Feturizer/New_Systems/rnas/3c44

>  <Rbt.Executable>
rbdock ($Id: //depot/dev/client3/rdock/2013.1/src/exe/rbdock.cxx#4 $)

>  <Rbt.Library>
libRbt.so (2013.1, Build901 2013/11/27)

>  <Rbt.Parameter_File>
/export/apps/rDock/src/rDock_2013.1_src/data/scripts/dock_solv.prm

>  <Rbt.Receptor>
prm/blind_docking_60.prm

>  <SCORE>
6.89991

>  <SCORE.INTER>
-8.4351

>  <SCORE.INTER.CONST>
1

>  <SCORE.INTER.POLAR>
-0.609424

>  <SCORE.INTER.ROT>
9

>  <SCORE.INTER.SOLV>
22.8206

>  <SCORE.INTER.VDW>
-20.7989

>  <SCORE.INTER.norm>
-0.200836

>  <SCORE.INTRA>
9.64673

>  <SCORE.INTRA.DIHEDRAL>
1.33937

>  <SCORE.INTRA.DIHEDRAL.0>
14.8538

>  <SCORE.INTRA.POLAR>
0

>  <SCORE.INTRA.POLAR.0>
0

>  <SCORE.INTRA.REPUL>
0.940158

>  <SCORE.INTRA.REPUL.0>
0

>  <SCORE.INTRA.SOLV>
0.50171

>  <SCORE.INTRA.SOLV.lig_0>
-100.951

>  <SCORE.INTRA.VDW>
4.0254

>  <SCORE.INTRA.VDW.0>
-5.71388

>  <SCORE.INTRA.norm>
0.229684

>  <SCORE.RESTR>
5.68828

>  <SCORE.RESTR.CAVITY>
5.68828

>  <SCORE.RESTR.norm>
0.135435

>  <SCORE.SYSTEM>
0

>  <SCORE.SYSTEM.CONST>
0

>  <SCORE.SYSTEM.DIHEDRAL>
0

>  <SCORE.SYSTEM.SOLV>
0

>  <SCORE.SYSTEM.norm>
0

>  <SCORE.heavy>
42

>  <SCORE.norm>
0.164284

>  <RMSD>
13.118

$$$$
3c44_lig
 OpenBabel11021811463D
libRbt.so/2013.1/901 2013/11/27
 42 45  0  0  0  0  0  0  0  0999 V2000
   38.1651   43.9114   -6.2229 C   0  0  2  0  0  0  0  0  0  0  0  0
   37.0608   43.1732   -6.7682 O   0  0  0  0  0  0  0  0  0  0  0  0
   36.3299   39.5407   -8.6284 C   0  0  2  0  0  0  0  0  0  0  0  0
   36.2772   38.2580   -9.3466 N   0  0  0  0  0  0  0  0  0  0  0  0
   37.5743   41.0219   -4.2110 C   0  0  1  0  0  0  0  0  0  0  0  0
   35.7998   40.7044   -0.3474 C   0  0  1  0  0  0  0  0  0  0  0  0
   37.6264   45.0101   -5.3005 C   0  0  2  0  0  0  0  0  0  0  0  0
   36.7417   44.4437   -4.2722 N   0  0  0  0  0  0  0  0  0  0  0  0
   36.8379   40.6541   -9.5490 C   0  0  0  0  0  0  0  0  0  0  0  0
   37.7653   39.8334   -3.2676 C   0  0  2  0  0  0  0  0  0  0  0  0
   36.7137   38.8849   -3.4582 O   0  0  0  0  0  0  0  0  0  0  0  0
   35.9867   39.2431    0.0740 C   0  0  2  0  0  0  0  0  0  0  0  0
   35.2355   38.3937   -0.8606 N   0  0  0  0  0  0  0  0  0  0  0  0
   36.8584   46.0729   -6.0902 C   0  0  1  0  0  0  0  0  0  0  0  0
   36.5139   47.1520   -5.2160 O   0  0  0  0  0  0  0  0  0  0  0  0
   36.7191   41.9790   -8.7883 C   0  0  2  0  0  0  0  0  0  0  0  0
   37.2559   43.0670   -9.6195 N   0  0  0  0  0  0  0  0  0  0  0  0
   37.5590   40.5343   -1.9263 C   0  0  2  0  0  0  0  0  0  0  0  0
   36.1737   40.8607   -1.7276 O   0  0  0  0  0  0  0  0  0  0  0  0
   35.4586   39.0046    1.4946 C   0  0  1  0  0  0  0  0  0  0  0  0
   36.3101   39.6337    2.4559 O   0  0  0  0  0  0  0  0  0  0  0  0
   37.7278   46.5991   -7.2337 C   0  0  2  0  0  0  0  0  0  0  0  0
   36.9693   47.5097   -8.0340 O   0  0  0  0  0  0  0  0  0  0  0  0
   37.4610   41.9693   -7.4459 C   0  0  2  0  0  0  0  0  0  0  0  0
   38.3543   41.8099   -2.1550 C   0  0  2  0  0  0  0  0  0  0  0  0
   38.2984   42.0888   -3.5708 O   0  0  0  0  0  0  0  0  0  0  0  0
   34.0422   39.5596    1.6549 C   0  0  2  0  0  0  0  0  0  0  0  0
   33.1476   38.7811    0.8551 O   0  0  0  0  0  0  0  0  0  0  0  0
   38.2031   45.4286   -8.0958 C   0  0  2  0  0  0  0  0  0  0  0  0
   38.9398   44.4860   -7.2919 O   0  0  0  0  0  0  0  0  0  0  0  0
   37.1723   40.7459   -6.5784 C   0  0  2  0  0  0  0  0  0  0  0  0
   38.1206   40.6927   -5.5002 O   0  0  0  0  0  0  0  0  0  0  0  0
   39.7978   41.6006   -1.6924 C   0  0  0  0  0  0  0  0  0  0  0  0
   39.8301   41.5634   -0.2639 O   0  0  0  0  0  0  0  0  0  0  0  0
   34.0269   41.0227    1.2043 C   0  0  1  0  0  0  0  0  0  0  0  0
   34.4230   41.0770   -0.1775 O   0  0  0  0  0  0  0  0  0  0  0  0
   39.1053   45.9971   -9.1941 C   0  0  0  0  0  0  0  0  0  0  0  0
   39.5376   44.9221  -10.0987 O   0  0  0  0  0  0  0  0  0  0  0  0
   37.2473   39.4571   -7.4058 C   0  0  1  0  0  0  0  0  0  0  0  0
   36.8871   38.3351   -6.5970 O   0  0  0  0  0  0  0  0  0  0  0  0
   32.6450   41.6600    1.3540 C   0  0  0  0  0  0  0  0  0  0  0  0
   32.5930   42.8947    0.5587 N   0  0  0  0  0  0  0  0  0  0  0  0
  1  2  1  6  0  0  0
  1  7  1  0  0  0  0
  1 30  1  0  0  0  0
  3  4  1  6  0  0  0
  3  9  1  0  0  0  0
  3 39  1  0  0  0  0
  5 10  1  0  0  0  0
  5 26  1  0  0  0  0
  5 32  1  6  0  0  0
  6 12  1  0  0  0  0
  6 36  1  0  0  0  0
  6 19  1  6  0  0  0
  7  8  1  1  0  0  0
  7 14  1  0  0  0  0
  9 16  1  0  0  0  0
 10 11  1  6  0  0  0
 10 18  1  0  0  0  0
 12 13  1  6  0  0  0
 12 20  1  0  0  0  0
 14 15  1  1  0  0  0
 14 22  1  0  0  0  0
 16 17  1  6  0  0  0
 16 24  1  0  0  0  0
 18 19  1  6  0  0  0
 18 25  1  0  0  0  0
 20 21  1  1  0  0  0
 20 27  1  0  0  0  0
 22 23  1  6  0  0  0
 22 29  1  0  0  0  0
 24  2  1  1  0  0  0
 24 31  1  0  0  0  0
 25 26  1  0  0  0  0
 25 33  1  6  0  0  0
 27 28  1  6  0  0  0
 27 35  1  0  0  0  0
 29 30  1  0  0  0  0
 29 37  1  6  0  0  0
 31 32  1  1  0  0  0
 31 39  1  0  0  0  0
 33 34  1  0  0  0  0
 35 36  1  0  0  0  0
 35 41  1  6  0  0  0
 37 38  1  0  0  0  0
 39 40  1  1  0  0  0
 41 42  1  0  0  0  0
M  END
>  <CHROM.1>
-169.06909241,120.65141251,-61.72626823,143.38929414,-132.17987110,-72.40874549
-177.07122246,107.65893420,-163.47674450,36.80849613,41.90778575,-4.21031168
0.03865530,1.29948986,0.38060173

>  <Name>
3c44_lig

>  <RI>
0

>  <Rbt.Current_Directory>
/home/itssahil/PROJECTS/Mol_Feturizer/New_Systems/rnas/3c44

>  <Rbt.Executable>
rbdock ($Id: //depot/dev/client3/rdock/2013.1/src/exe/rbdock.cxx#4 $)

>  <Rbt.Library>
libRbt.so (2013.1, Build901 2013/11/27)

>  <Rbt.Parameter_File>
/export/apps/rDock/src/rDock_2013.1_src/data/scripts/dock_solv.prm

>  <Rbt.Receptor>
prm/blind_docking_100.prm

>  <SCORE>
-3.59045

>  <SCORE.INTER>
-18.3188

>  <SCORE.INTER.CONST>
1

>  <SCORE.INTER.POLAR>
-1.57998

>  <SCORE.INTER.ROT>
9

>  <SCORE.INTER.SOLV>
24.0719

>  <SCORE.INTER.VDW>
-24.5699

>  <SCORE.INTER.norm>
-0.436162

>  <SCORE.INTRA>
6.95151

>  <SCORE.INTRA.DIHEDRAL>
11.9733

>  <SCORE.INTRA.DIHEDRAL.0>
14.8538

>  <SCORE.INTRA.POLAR>
0

>  <SCORE.INTRA.POLAR.0>
0

>  <SCORE.INTRA.REPUL>
0.00284668

>  <SCORE.INTRA.REPUL.0>
0

>  <SCORE.INTRA.SOLV>
1.7566

>  <SCORE.INTRA.SOLV.lig_0>
-100.951

>  <SCORE.INTRA.VDW>
0.0723269

>  <SCORE.INTRA.VDW.0>
-5.71388

>  <SCORE.INTRA.norm>
0.165512

>  <SCORE.RESTR>
7.77683

>  <SCORE.RESTR.CAVITY>
7.77683

>  <SCORE.RESTR.norm>
0.185163

>  <SCORE.SYSTEM>
0

>  <SCORE.SYSTEM.CONST>
0

>  <SCORE.SYSTEM.DIHEDRAL>
0

>  <SCORE.SYSTEM.SOLV>
0

>  <SCORE.SYSTEM.norm>
0

>  <SCORE.heavy>
42

>  <SCORE.norm>
-0.0854869

>  <RMSD>
13.120

$$$$
3c44_lig
 OpenBabel11021811463D
libRbt.so/2013.1/901 2013/11/27
 42 45  0  0  0  0  0  0  0  0999 V2000
   38.1462   44.0749   -6.3746 C   0  0  2  0  0  0  0  0  0  0  0  0
   37.0306   43.3618   -6.9302 O   0  0  0  0  0  0  0  0  0  0  0  0
   36.2033   39.6244   -8.5230 C   0  0  2  0  0  0  0  0  0  0  0  0
   36.1159   38.2956   -9.1479 N   0  0  0  0  0  0  0  0  0  0  0  0
   37.4646   40.8940   -4.1824 C   0  0  1  0  0  0  0  0  0  0  0  0
   35.9685   40.2078   -0.3880 C   0  0  1  0  0  0  0  0  0  0  0  0
   37.6252   45.1581   -5.4243 C   0  0  2  0  0  0  0  0  0  0  0  0
   36.7398   44.5783   -4.4040 N   0  0  0  0  0  0  0  0  0  0  0  0
   36.7281   40.6580   -9.5237 C   0  0  0  0  0  0  0  0  0  0  0  0
   38.1450   39.7811   -3.3840 C   0  0  2  0  0  0  0  0  0  0  0  0
   37.5456   38.5215   -3.6937 O   0  0  0  0  0  0  0  0  0  0  0  0
   35.8996   38.9060    0.4174 C   0  0  2  0  0  0  0  0  0  0  0  0
   34.9923   37.9816   -0.2764 N   0  0  0  0  0  0  0  0  0  0  0  0
   36.8650   46.2473   -6.1850 C   0  0  1  0  0  0  0  0  0  0  0  0
   36.5376   47.3099   -5.2845 O   0  0  0  0  0  0  0  0  0  0  0  0
   36.6452   42.0357   -8.8581 C   0  0  2  0  0  0  0  0  0  0  0  0
   37.1991   43.0497   -9.7681 N   0  0  0  0  0  0  0  0  0  0  0  0
   37.7318   40.1888   -1.9712 C   0  0  2  0  0  0  0  0  0  0  0  0
   36.3389   39.9159   -1.7469 O   0  0  0  0  0  0  0  0  0  0  0  0
   35.3635   39.1582    1.8327 C   0  0  1  0  0  0  0  0  0  0  0  0
   36.3308   39.8637    2.6146 O   0  0  0  0  0  0  0  0  0  0  0  0
   37.7339   46.7897   -7.3213 C   0  0  2  0  0  0  0  0  0  0  0  0
   36.9814   47.7269   -8.0962 O   0  0  0  0  0  0  0  0  0  0  0  0
   37.3981   42.1041   -7.5236 C   0  0  2  0  0  0  0  0  0  0  0  0
   37.9507   41.6919   -2.0414 C   0  0  2  0  0  0  0  0  0  0  0  0
   37.7342   42.0818   -3.4149 O   0  0  0  0  0  0  0  0  0  0  0  0
   34.0719   39.9766    1.7934 C   0  0  2  0  0  0  0  0  0  0  0  0
   33.0384   39.1811    1.2058 O   0  0  0  0  0  0  0  0  0  0  0  0
   38.1910   45.6340   -8.2126 C   0  0  2  0  0  0  0  0  0  0  0  0
   38.9214   44.6651   -7.4348 O   0  0  0  0  0  0  0  0  0  0  0  0
   37.0896   40.9521   -6.5695 C   0  0  2  0  0  0  0  0  0  0  0  0
   38.0456   40.9538   -5.4967 O   0  0  0  0  0  0  0  0  0  0  0  0
   39.3768   42.0209   -1.5947 C   0  0  0  0  0  0  0  0  0  0  0  0
   39.6499   41.3431   -0.3663 O   0  0  0  0  0  0  0  0  0  0  0  0
   34.3092   41.2419    0.9648 C   0  0  1  0  0  0  0  0  0  0  0  0
   34.6833   40.8492   -0.3676 O   0  0  0  0  0  0  0  0  0  0  0  0
   39.0935   46.2174   -9.3028 C   0  0  0  0  0  0  0  0  0  0  0  0
   39.5433   45.1512  -10.2094 O   0  0  0  0  0  0  0  0  0  0  0  0
   37.1289   39.6067   -7.3039 C   0  0  1  0  0  0  0  0  0  0  0  0
   36.7507   38.5532   -6.4150 O   0  0  0  0  0  0  0  0  0  0  0  0
   33.0659   42.1293    0.8941 C   0  0  0  0  0  0  0  0  0  0  0  0
   33.3254   43.2540   -0.0154 N   0  0  0  0  0  0  0  0  0  0  0  0
  1  2  1  6  0  0  0
  1  7  1  0  0  0  0
  1 30  1  0  0  0  0
  3  4  1  6  0  0  0
  3  9  1  0  0  0  0
  3 39  1  0  0  0  0
  5 10  1  0  0  0  0
  5 26  1  0  0  0  0
  5 32  1  6  0  0  0
  6 12  1  0  0  0  0
  6 36  1  0  0  0  0
  6 19  1  6  0  0  0
  7  8  1  1  0  0  0
  7 14  1  0  0  0  0
  9 16  1  0  0  0  0
 10 11  1  6  0  0  0
 10 18  1  0  0  0  0
 12 13  1  6  0  0  0
 12 20  1  0  0  0  0
 14 15  1  1  0  0  0
 14 22  1  0  0  0  0
 16 17  1  6  0  0  0
 16 24  1  0  0  0  0
 18 19  1  6  0  0  0
 18 25  1  0  0  0  0
 20 21  1  1  0  0  0
 20 27  1  0  0  0  0
 22 23  1  6  0  0  0
 22 29  1  0  0  0  0
 24  2  1  1  0  0  0
 24 31  1  0  0  0  0
 25 26  1  0  0  0  0
 25 33  1  6  0  0  0
 27 28  1  6  0  0  0
 27 35  1  0  0  0  0
 29 30  1  0  0  0  0
 29 37  1  6  0  0  0
 31 32  1  1  0  0  0
 31 39  1  0  0  0  0
 33 34  1  0  0  0  0
 35 36  1  0  0  0  0
 35 41  1  6  0  0  0
 37 38  1  0  0  0  0
 39 40  1  1  0  0  0
 41 42  1  0  0  0  0
M  END
>  <CHROM.1>
-163.33318744,129.69166274,-100.91649943,175.81294629,-135.69699804,-48.54242793
-178.87657117,129.53355788,-174.70950576,36.81427448,41.96281371,-4.22863110
0.13546619,1.32433194,0.31187404

>  <Name>
3c44_lig

>  <RI>
0

>  <Rbt.Current_Directory>
/home/itssahil/PROJECTS/Mol_Feturizer/New_Systems/rnas/3c44

>  <Rbt.Executable>
rbdock ($Id: //depot/dev/client3/rdock/2013.1/src/exe/rbdock.cxx#4 $)

>  <Rbt.Library>
libRbt.so (2013.1, Build901 2013/11/27)

>  <Rbt.Parameter_File>
/export/apps/rDock/src/rDock_2013.1_src/data/scripts/dock_solv.prm

>  <Rbt.Receptor>
prm/blind_docking_100.prm

>  <SCORE>
0.125777

>  <SCORE.INTER>
-12.8683

>  <SCORE.INTER.CONST>
1

>  <SCORE.INTER.POLAR>
-1.29773

>  <SCORE.INTER.ROT>
9

>  <SCORE.INTER.SOLV>
25.1363

>  <SCORE.INTER.VDW>
-22.2319

>  <SCORE.INTER.norm>
-0.306388

>  <SCORE.INTRA>
6.28264

>  <SCORE.INTRA.DIHEDRAL>
12.3705

>  <SCORE.INTRA.DIHEDRAL.0>
14.8538

>  <SCORE.INTRA.POLAR>
0

>  <SCORE.INTRA.POLAR.0>
0

>  <SCORE.INTRA.REPUL>
0

>  <SCORE.INTRA.REPUL.0>
0

>  <SCORE.INTRA.SOLV>
-0.386054

>  <SCORE.INTRA.SOLV.lig_0>
-100.951

>  <SCORE.INTRA.VDW>
0.290438

>  <SCORE.INTRA.VDW.0>
-5.71388

>  <SCORE.INTRA.norm>
0.149587

>  <SCORE.RESTR>
6.71144

>  <SCORE.RESTR.CAVITY>
6.71144

>  <SCORE.RESTR.norm>
0.159796

>  <SCORE.SYSTEM>
0

>  <SCORE.SYSTEM.CONST>
0

>  <SCORE.SYSTEM.DIHEDRAL>
0

>  <SCORE.SYSTEM.SOLV>
0

>  <SCORE.SYSTEM.norm>
0

>  <SCORE.heavy>
42

>  <SCORE.norm>
0.00299469

>  <RMSD>
13.152

$$$$
3c44_lig
 OpenBabel11021811463D
libRbt.so/2013.1/901 2013/11/27
 42 45  0  0  0  0  0  0  0  0999 V2000
   37.7153   43.7805   -8.3558 C   0  0  2  0  0  0  0  0  0  0  0  0
   38.6805   43.5285   -7.3230 O   0  0  0  0  0  0  0  0  0  0  0  0
   37.4672   39.5751   -7.0258 C   0  0  2  0  0  0  0  0  0  0  0  0
   37.1203   38.1781   -6.7227 N   0  0  0  0  0  0  0  0  0  0  0  0
   35.9888   42.3195   -4.3618 C   0  0  1  0  0  0  0  0  0  0  0  0
   36.0531   40.4782   -0.5435 C   0  0  1  0  0  0  0  0  0  0  0  0
   38.4197   43.7564   -9.7164 C   0  0  2  0  0  0  0  0  0  0  0  0
   39.1552   42.4974   -9.9033 N   0  0  0  0  0  0  0  0  0  0  0  0
   38.9674   39.8131   -6.8313 C   0  0  0  0  0  0  0  0  0  0  0  0
   37.2118   42.4270   -3.4499 C   0  0  2  0  0  0  0  0  0  0  0  0
   38.1090   41.3450   -3.7068 O   0  0  0  0  0  0  0  0  0  0  0  0
   36.1629   38.9586   -0.3806 C   0  0  2  0  0  0  0  0  0  0  0  0
   35.1582   38.3277   -1.2475 N   0  0  0  0  0  0  0  0  0  0  0  0
   39.3923   44.9295   -9.8606 C   0  0  1  0  0  0  0  0  0  0  0  0
   39.9038   44.9560  -11.1967 O   0  0  0  0  0  0  0  0  0  0  0  0
   39.2804   41.2342   -7.3114 C   0  0  2  0  0  0  0  0  0  0  0  0
   40.7045   41.5222   -7.0830 N   0  0  0  0  0  0  0  0  0  0  0  0
   36.5431   42.2010   -2.0954 C   0  0  2  0  0  0  0  0  0  0  0  0
   36.1646   40.8240   -1.9353 O   0  0  0  0  0  0  0  0  0  0  0  0
   35.9002   38.5369    1.0710 C   0  0  1  0  0  0  0  0  0  0  0  0
   36.9847   38.9391    1.9118 O   0  0  0  0  0  0  0  0  0  0  0  0
   38.6678   46.2439   -9.5645 C   0  0  2  0  0  0  0  0  0  0  0  0
   39.6034   47.3251   -9.5924 O   0  0  0  0  0  0  0  0  0  0  0  0
   38.4394   42.3053   -6.6057 C   0  0  2  0  0  0  0  0  0  0  0  0
   35.2959   43.0559   -2.2560 C   0  0  2  0  0  0  0  0  0  0  0  0
   34.9729   43.0631   -3.6635 O   0  0  0  0  0  0  0  0  0  0  0  0
   34.6093   39.1637    1.6004 C   0  0  2  0  0  0  0  0  0  0  0  0
   33.4984   38.5920    0.9039 O   0  0  0  0  0  0  0  0  0  0  0  0
   38.0107   46.1669   -8.1856 C   0  0  2  0  0  0  0  0  0  0  0  0
   37.0906   45.0588   -8.1345 O   0  0  0  0  0  0  0  0  0  0  0  0
   36.9440   41.9985   -6.5589 C   0  0  2  0  0  0  0  0  0  0  0  0
   36.3022   42.8983   -5.6406 O   0  0  0  0  0  0  0  0  0  0  0  0
   35.5796   44.4718   -1.7498 C   0  0  0  0  0  0  0  0  0  0  0  0
   34.3957   45.2616   -1.8825 O   0  0  0  0  0  0  0  0  0  0  0  0
   34.6612   40.6769    1.3736 C   0  0  1  0  0  0  0  0  0  0  0  0
   34.7832   40.9210   -0.0388 O   0  0  0  0  0  0  0  0  0  0  0  0
   37.2604   47.4811   -7.9547 C   0  0  0  0  0  0  0  0  0  0  0  0
   36.6109   47.4664   -6.6361 O   0  0  0  0  0  0  0  0  0  0  0  0
   36.6953   40.5475   -6.1302 C   0  0  1  0  0  0  0  0  0  0  0  0
   35.2968   40.2560   -6.1792 O   0  0  0  0  0  0  0  0  0  0  0  0
   33.4104   41.3840    1.8971 C   0  0  0  0  0  0  0  0  0  0  0  0
   32.2182   40.7531    1.3139 N   0  0  0  0  0  0  0  0  0  0  0  0
  1  2  1  1  0  0  0
  1  7  1  0  0  0  0
  1 30  1  0  0  0  0
  3  4  1  1  0  0  0
  3  9  1  0  0  0  0
  3 39  1  0  0  0  0
  5 10  1  0  0  0  0
  5 26  1  0  0  0  0
  5 32  1  6  0  0  0
  6 12  1  0  0  0  0
  6 36  1  0  0  0  0
  6 19  1  6  0  0  0
  7  8  1  1  0  0  0
  7 14  1  0  0  0  0
  9 16  1  0  0  0  0
 10 11  1  6  0  0  0
 10 18  1  0  0  0  0
 12 13  1  6  0  0  0
 12 20  1  0  0  0  0
 14 15  1  6  0  0  0
 14 22  1  0  0  0  0
 16 17  1  1  0  0  0
 16 24  1  0  0  0  0
 18 19  1  6  0  0  0
 18 25  1  0  0  0  0
 20 21  1  1  0  0  0
 20 27  1  0  0  0  0
 22 23  1  1  0  0  0
 22 29  1  0  0  0  0
 24  2  1  6  0  0  0
 24 31  1  0  0  0  0
 25 26  1  0  0  0  0
 25 33  1  6  0  0  0
 27 28  1  6  0  0  0
 27 35  1  0  0  0  0
 29 30  1  0  0  0  0
 29 37  1  6  0  0  0
 31 32  1  1  0  0  0
 31 39  1  0  0  0  0
 33 34  1  0  0  0  0
 35 36  1  0  0  0  0
 35 41  1  6  0  0  0
 37 38  1  0  0  0  0
 39 40  1  6  0  0  0
 41 42  1  0  0  0  0
M  END
>  <CHROM.1>
-115.75923569,85.49413683,-159.36512813,156.48621837,93.41049766,-178.98664924
-179.75126240,-102.40791959,-53.67724430,36.77954221,42.25716987,-4.51317864
-0.79866610,-1.05911206,2.73091184

>  <Name>
3c44_lig

>  <RI>
0

>  <Rbt.Current_Directory>
/home/itssahil/PROJECTS/Mol_Feturizer/New_Systems/rnas/3c44

>  <Rbt.Executable>
rbdock ($Id: //depot/dev/client3/rdock/2013.1/src/exe/rbdock.cxx#4 $)

>  <Rbt.Library>
libRbt.so (2013.1, Build901 2013/11/27)

>  <Rbt.Parameter_File>
/export/apps/rDock/src/rDock_2013.1_src/data/scripts/dock_solv.prm

>  <Rbt.Receptor>
prm/blind_docking_100.prm

>  <SCORE>
-2.07523

>  <SCORE.INTER>
-20.0374

>  <SCORE.INTER.CONST>
1

>  <SCORE.INTER.POLAR>
-1.65789

>  <SCORE.INTER.ROT>
9

>  <SCORE.INTER.SOLV>
22.0222

>  <SCORE.INTER.VDW>
-24.7727

>  <SCORE.INTER.norm>
-0.477081

>  <SCORE.INTRA>
12.3721

>  <SCORE.INTRA.DIHEDRAL>
9.60604

>  <SCORE.INTRA.DIHEDRAL.0>
14.8538

>  <SCORE.INTRA.POLAR>
0

>  <SCORE.INTRA.POLAR.0>
0

>  <SCORE.INTRA.REPUL>
0

>  <SCORE.INTRA.REPUL.0>
0

>  <SCORE.INTRA.SOLV>
0.252753

>  <SCORE.INTRA.SOLV.lig_0>
-100.951

>  <SCORE.INTRA.VDW>
7.44268

>  <SCORE.INTRA.VDW.0>
-5.71388

>  <SCORE.INTRA.norm>
0.294573

>  <SCORE.RESTR>
5.59009

>  <SCORE.RESTR.CAVITY>
5.59009

>  <SCORE.RESTR.norm>
0.133097

>  <SCORE.SYSTEM>
0

>  <SCORE.SYSTEM.CONST>
0

>  <SCORE.SYSTEM.DIHEDRAL>
0

>  <SCORE.SYSTEM.SOLV>
0

>  <SCORE.SYSTEM.norm>
0

>  <SCORE.heavy>
42

>  <SCORE.norm>
-0.0494101

>  <RMSD>
13.155

$$$$
3c44_lig
 OpenBabel11021811463D
libRbt.so/2013.1/901 2013/11/27
 42 45  0  0  0  0  0  0  0  0999 V2000
   38.0886   43.6001   -8.4445 C   0  0  2  0  0  0  0  0  0  0  0  0
   38.7652   43.5090   -7.1813 O   0  0  0  0  0  0  0  0  0  0  0  0
   37.4816   39.5761   -6.9089 C   0  0  2  0  0  0  0  0  0  0  0  0
   37.1007   38.1868   -6.6110 N   0  0  0  0  0  0  0  0  0  0  0  0
   36.0167   42.3968   -4.3001 C   0  0  1  0  0  0  0  0  0  0  0  0
   35.8569   40.7984   -0.4470 C   0  0  1  0  0  0  0  0  0  0  0  0
   39.0744   44.0999   -9.5058 C   0  0  2  0  0  0  0  0  0  0  0  0
   40.2733   43.2503   -9.5487 N   0  0  0  0  0  0  0  0  0  0  0  0
   38.9746   39.7943   -6.6470 C   0  0  0  0  0  0  0  0  0  0  0  0
   37.2423   42.5828   -3.4043 C   0  0  2  0  0  0  0  0  0  0  0  0
   38.1712   41.5189   -3.6207 O   0  0  0  0  0  0  0  0  0  0  0  0
   36.0422   39.3206   -0.0872 C   0  0  2  0  0  0  0  0  0  0  0  0
   35.3133   38.5107   -1.0731 N   0  0  0  0  0  0  0  0  0  0  0  0
   39.4964   45.5464   -9.2364 C   0  0  1  0  0  0  0  0  0  0  0  0
   40.2861   46.0187  -10.3321 O   0  0  0  0  0  0  0  0  0  0  0  0
   39.3302   41.2066   -7.1234 C   0  0  2  0  0  0  0  0  0  0  0  0
   40.7463   41.4762   -6.8316 N   0  0  0  0  0  0  0  0  0  0  0  0
   36.5908   42.3967   -2.0355 C   0  0  2  0  0  0  0  0  0  0  0  0
   36.2569   41.0171   -1.8113 O   0  0  0  0  0  0  0  0  0  0  0  0
   35.4876   39.0173    1.3109 C   0  0  1  0  0  0  0  0  0  0  0  0
   36.3173   39.6063    2.3157 O   0  0  0  0  0  0  0  0  0  0  0  0
   38.2562   46.4288   -9.0824 C   0  0  2  0  0  0  0  0  0  0  0  0
   38.6520   47.7550   -8.7223 O   0  0  0  0  0  0  0  0  0  0  0  0
   38.4733   42.2957   -6.4661 C   0  0  2  0  0  0  0  0  0  0  0  0
   35.3162   43.2044   -2.2232 C   0  0  2  0  0  0  0  0  0  0  0  0
   34.9830   43.1388   -3.6267 O   0  0  0  0  0  0  0  0  0  0  0  0
   34.0659   39.5594    1.4676 C   0  0  2  0  0  0  0  0  0  0  0  0
   33.1906   38.8139    0.6167 O   0  0  0  0  0  0  0  0  0  0  0  0
   37.3476   45.8499   -7.9968 C   0  0  2  0  0  0  0  0  0  0  0  0
   36.9702   44.4999   -8.3321 O   0  0  0  0  0  0  0  0  0  0  0  0
   36.9729   42.0106   -6.4862 C   0  0  2  0  0  0  0  0  0  0  0  0
   36.3027   42.9275   -5.6059 O   0  0  0  0  0  0  0  0  0  0  0  0
   35.5588   44.6496   -1.7826 C   0  0  0  0  0  0  0  0  0  0  0  0
   36.0200   44.6547   -0.4298 O   0  0  0  0  0  0  0  0  0  0  0  0
   34.0527   41.0410    1.0821 C   0  0  1  0  0  0  0  0  0  0  0  0
   34.4753   41.1580   -0.2879 O   0  0  0  0  0  0  0  0  0  0  0  0
   36.1021   46.7359   -7.9126 C   0  0  0  0  0  0  0  0  0  0  0  0
   35.8147   47.0702   -6.5103 O   0  0  0  0  0  0  0  0  0  0  0  0
   36.6834   40.5671   -6.0579 C   0  0  1  0  0  0  0  0  0  0  0  0
   35.2846   40.2952   -6.1693 O   0  0  0  0  0  0  0  0  0  0  0  0
   32.6652   41.6660    1.2326 C   0  0  0  0  0  0  0  0  0  0  0  0
   32.6168   42.9245    0.4754 N   0  0  0  0  0  0  0  0  0  0  0  0
  1  2  1  1  0  0  0
  1  7  1  0  0  0  0
  1 30  1  0  0  0  0
  3  4  1  1  0  0  0
  3  9  1  0  0  0  0
  3 39  1  0  0  0  0
  5 10  1  0  0  0  0
  5 26  1  0  0  0  0
  5 32  1  6  0  0  0
  6 12  1  0  0  0  0
  6 36  1  0  0  0  0
  6 19  1  6  0  0  0
  7  8  1  1  0  0  0
  7 14  1  0  0  0  0
  9 16  1  0  0  0  0
 10 11  1  6  0  0  0
 10 18  1  0  0  0  0
 12 13  1  6  0  0  0
 12 20  1  0  0  0  0
 14 15  1  6  0  0  0
 14 22  1  0  0  0  0
 16 17  1  1  0  0  0
 16 24  1  0  0  0  0
 18 19  1  6  0  0  0
 18 25  1  0  0  0  0
 20 21  1  1  0  0  0
 20 27  1  0  0  0  0
 22 23  1  1  0  0  0
 22 29  1  0  0  0  0
 24  2  1  6  0  0  0
 24 31  1  0  0  0  0
 25 26  1  0  0  0  0
 25 33  1  6  0  0  0
 27 28  1  6  0  0  0
 27 35  1  0  0  0  0
 29 30  1  0  0  0  0
 29 37  1  6  0  0  0
 31 32  1  1  0  0  0
 31 39  1  0  0  0  0
 33 34  1  0  0  0  0
 35 36  1  0  0  0  0
 35 41  1  6  0  0  0
 37 38  1  0  0  0  0
 39 40  1  6  0  0  0
 41 42  1  0  0  0  0
M  END
>  <CHROM.1>
-135.66049225,85.14146482,-157.79618032,170.15443890,78.48605848,-56.30202181
-132.36558635,-97.71482526,-162.64078545,36.71547889,42.43195065,-4.37893532
-0.78224038,-1.02556102,2.71523192

>  <Name>
3c44_lig

>  <RI>
0

>  <Rbt.Current_Directory>
/home/itssahil/PROJECTS/Mol_Feturizer/New_Systems/rnas/3c44

>  <Rbt.Executable>
rbdock ($Id: //depot/dev/client3/rdock/2013.1/src/exe/rbdock.cxx#4 $)

>  <Rbt.Library>
libRbt.so (2013.1, Build901 2013/11/27)

>  <Rbt.Parameter_File>
/export/apps/rDock/src/rDock_2013.1_src/data/scripts/dock_solv.prm

>  <Rbt.Receptor>
prm/blind_docking_100.prm

>  <SCORE>
-3.84908

>  <SCORE.INTER>
-15.9716

>  <SCORE.INTER.CONST>
1

>  <SCORE.INTER.POLAR>
-1.81809

>  <SCORE.INTER.ROT>
9

>  <SCORE.INTER.SOLV>
26.0967

>  <SCORE.INTER.VDW>
-22.8863

>  <SCORE.INTER.norm>
-0.380276

>  <SCORE.INTRA>
9.5414

>  <SCORE.INTRA.DIHEDRAL>
9.2595

>  <SCORE.INTRA.DIHEDRAL.0>
14.8538

>  <SCORE.INTRA.POLAR>
0

>  <SCORE.INTRA.POLAR.0>
0

>  <SCORE.INTRA.REPUL>
0

>  <SCORE.INTRA.REPUL.0>
0

>  <SCORE.INTRA.SOLV>
-0.576943

>  <SCORE.INTRA.SOLV.lig_0>
-100.951

>  <SCORE.INTRA.VDW>
5.20013

>  <SCORE.INTRA.VDW.0>
-5.71388

>  <SCORE.INTRA.norm>
0.227176

>  <SCORE.RESTR>
2.5811

>  <SCORE.RESTR.CAVITY>
2.5811

>  <SCORE.RESTR.norm>
0.0614548

>  <SCORE.SYSTEM>
0

>  <SCORE.SYSTEM.CONST>
0

>  <SCORE.SYSTEM.DIHEDRAL>
0

>  <SCORE.SYSTEM.SOLV>
0

>  <SCORE.SYSTEM.norm>
0

>  <SCORE.heavy>
42

>  <SCORE.norm>
-0.0916448

>  <RMSD>
13.207

$$$$
3c44_lig
 OpenBabel11021811463D
libRbt.so/2013.1/901 2013/11/27
 42 45  0  0  0  0  0  0  0  0999 V2000
   36.6018   40.0230   -6.4787 C   0  0  2  0  0  0  0  0  0  0  0  0
   36.2294   41.2948   -5.9260 O   0  0  0  0  0  0  0  0  0  0  0  0
   40.1618   42.6046   -6.0244 C   0  0  2  0  0  0  0  0  0  0  0  0
   41.4770   43.2546   -6.1325 N   0  0  0  0  0  0  0  0  0  0  0  0
   36.3514   42.3703   -2.9747 C   0  0  1  0  0  0  0  0  0  0  0  0
   34.9420   39.9689    0.2431 C   0  0  1  0  0  0  0  0  0  0  0  0
   35.6037   38.9603   -6.0072 C   0  0  2  0  0  0  0  0  0  0  0  0
   34.2256   39.3545   -6.3333 N   0  0  0  0  0  0  0  0  0  0  0  0
   39.4261   42.6487   -7.3668 C   0  0  0  0  0  0  0  0  0  0  0  0
   36.7739   42.6018   -1.5232 C   0  0  2  0  0  0  0  0  0  0  0  0
   37.9287   41.8170   -1.2197 O   0  0  0  0  0  0  0  0  0  0  0  0
   36.0076   39.5170    1.2472 C   0  0  2  0  0  0  0  0  0  0  0  0
   36.9561   38.6382    0.5494 N   0  0  0  0  0  0  0  0  0  0  0  0
   35.7124   38.7250   -4.4986 C   0  0  1  0  0  0  0  0  0  0  0  0
   34.8799   37.6202   -4.1328 O   0  0  0  0  0  0  0  0  0  0  0  0
   38.1431   41.8234   -7.2229 C   0  0  2  0  0  0  0  0  0  0  0  0
   37.3770   41.8927   -8.4765 N   0  0  0  0  0  0  0  0  0  0  0  0
   35.5673   42.0002   -0.8054 C   0  0  2  0  0  0  0  0  0  0  0  0
   35.5784   40.5664   -0.9002 O   0  0  0  0  0  0  0  0  0  0  0  0
   35.3777   38.7415    2.4116 C   0  0  1  0  0  0  0  0  0  0  0  0
   34.6274   39.6233    3.2509 O   0  0  0  0  0  0  0  0  0  0  0  0
   37.1635   38.4174   -4.1244 C   0  0  2  0  0  0  0  0  0  0  0  0
   37.2801   38.3071   -2.7034 O   0  0  0  0  0  0  0  0  0  0  0  0
   37.2498   42.2982   -6.0700 C   0  0  2  0  0  0  0  0  0  0  0  0
   34.4345   42.5573   -1.6530 C   0  0  2  0  0  0  0  0  0  0  0  0
   34.9571   42.7285   -2.9882 O   0  0  0  0  0  0  0  0  0  0  0  0
   34.4475   37.6406    1.8993 C   0  0  2  0  0  0  0  0  0  0  0  0
   35.2326   36.6390    1.2463 O   0  0  0  0  0  0  0  0  0  0  0  0
   38.0714   39.5394   -4.6302 C   0  0  2  0  0  0  0  0  0  0  0  0
   37.9361   39.6831   -6.0578 O   0  0  0  0  0  0  0  0  0  0  0  0
   37.9877   42.5043   -4.7487 C   0  0  2  0  0  0  0  0  0  0  0  0
   37.1368   43.2146   -3.8344 O   0  0  0  0  0  0  0  0  0  0  0  0
   33.9700   43.8932   -1.0689 C   0  0  0  0  0  0  0  0  0  0  0  0
   34.9762   44.8809   -1.3033 O   0  0  0  0  0  0  0  0  0  0  0  0
   33.4419   38.2537    0.9212 C   0  0  1  0  0  0  0  0  0  0  0  0
   34.1700   38.8324   -0.1762 O   0  0  0  0  0  0  0  0  0  0  0  0
   39.5130   39.1653   -4.2762 C   0  0  0  0  0  0  0  0  0  0  0  0
   39.8713   37.8861   -4.9057 O   0  0  0  0  0  0  0  0  0  0  0  0
   39.2907   43.2832   -4.9642 C   0  0  1  0  0  0  0  0  0  0  0  0
   40.0078   43.3871   -3.7321 O   0  0  0  0  0  0  0  0  0  0  0  0
   32.4577   37.2174    0.3773 C   0  0  0  0  0  0  0  0  0  0  0  0
   31.0900   37.7426    0.4913 N   0  0  0  0  0  0  0  0  0  0  0  0
  1  2  1  1  0  0  0
  1  7  1  0  0  0  0
  1 30  1  0  0  0  0
  3  4  1  6  0  0  0
  3  9  1  0  0  0  0
  3 39  1  0  0  0  0
  5 10  1  0  0  0  0
  5 26  1  0  0  0  0
  5 32  1  6  0  0  0
  6 12  1  0  0  0  0
  6 36  1  0  0  0  0
  6 19  1  6  0  0  0
  7  8  1  1  0  0  0
  7 14  1  0  0  0  0
  9 16  1  0  0  0  0
 10 11  1  1  0  0  0
 10 18  1  0  0  0  0
 12 13  1  6  0  0  0
 12 20  1  0  0  0  0
 14 15  1  6  0  0  0
 14 22  1  0  0  0  0
 16 17  1  6  0  0  0
 16 24  1  0  0  0  0
 18 19  1  6  0  0  0
 18 25  1  0  0  0  0
 20 21  1  1  0  0  0
 20 27  1  0  0  0  0
 22 23  1  1  0  0  0
 22 29  1  0  0  0  0
 24  2  1  1  0  0  0
 24 31  1  0  0  0  0
 25 26  1  0  0  0  0
 25 33  1  1  0  0  0
 27 28  1  6  0  0  0
 27 35  1  0  0  0  0
 29 30  1  0  0  0  0
 29 37  1  6  0  0  0
 31 32  1  1  0  0  0
 31 39  1  0  0  0  0
 33 34  1  0  0  0  0
 35 36  1  0  0  0  0
 35 41  1  6  0  0  0
 37 38  1  0  0  0  0
 39 40  1  1  0  0  0
 41 42  1  0  0  0  0
M  END
>  <CHROM.1>
167.50498183,116.19268304,-98.89212756,150.46074054,21.49648476,71.08410217
59.36192871,92.47839251,131.60518684,36.44416427,40.52064038,-2.84849505
0.09550249,-1.05380244,-2.62489198

>  <Name>
3c44_lig

>  <RI>
0

>  <Rbt.Current_Directory>
/home/itssahil/PROJECTS/Mol_Feturizer/New_Systems/rnas/3c44

>  <Rbt.Executable>
rbdock ($Id: //depot/dev/client3/rdock/2013.1/src/exe/rbdock.cxx#4 $)

>  <Rbt.Library>
libRbt.so (2013.1, Build901 2013/11/27)

>  <Rbt.Parameter_File>
/export/apps/rDock/src/rDock_2013.1_src/data/scripts/dock_solv.prm

>  <Rbt.Receptor>
prm/blind_docking_80.prm

>  <SCORE>
11.6362

>  <SCORE.INTER>
-9.0224

>  <SCORE.INTER.CONST>
1

>  <SCORE.INTER.POLAR>
-0.407961

>  <SCORE.INTER.ROT>
9

>  <SCORE.INTER.SOLV>
29.1782

>  <SCORE.INTER.VDW>
-23.9811

>  <SCORE.INTER.norm>
-0.214819

>  <SCORE.INTRA>
17.5475

>  <SCORE.INTRA.DIHEDRAL>
16.0954

>  <SCORE.INTRA.DIHEDRAL.0>
14.8538

>  <SCORE.INTRA.POLAR>
0

>  <SCORE.INTRA.POLAR.0>
0

>  <SCORE.INTRA.REPUL>
0.226651

>  <SCORE.INTRA.REPUL.0>
0

>  <SCORE.INTRA.SOLV>
-2.08414

>  <SCORE.INTRA.SOLV.lig_0>
-100.951

>  <SCORE.INTRA.VDW>
9.40861

>  <SCORE.INTRA.VDW.0>
-5.71388

>  <SCORE.INTRA.norm>
0.417797

>  <SCORE.RESTR>
3.11116

>  <SCORE.RESTR.CAVITY>
3.11116

>  <SCORE.RESTR.norm>
0.0740753

>  <SCORE.SYSTEM>
0

>  <SCORE.SYSTEM.CONST>
0

>  <SCORE.SYSTEM.DIHEDRAL>
0

>  <SCORE.SYSTEM.SOLV>
0

>  <SCORE.SYSTEM.norm>
0

>  <SCORE.heavy>
42

>  <SCORE.norm>
0.277054

>  <RMSD>
13.245

$$$$
3c44_lig
 OpenBabel11021811463D
libRbt.so/2013.1/901 2013/11/27
 42 45  0  0  0  0  0  0  0  0999 V2000
   39.0707   43.9248   -6.7228 C   0  0  2  0  0  0  0  0  0  0  0  0
   38.3362   42.7481   -7.0939 O   0  0  0  0  0  0  0  0  0  0  0  0
   38.9848   38.7048   -7.7422 C   0  0  2  0  0  0  0  0  0  0  0  0
   39.4200   37.3115   -7.9241 N   0  0  0  0  0  0  0  0  0  0  0  0
   37.6679   40.7795   -3.8284 C   0  0  1  0  0  0  0  0  0  0  0  0
   35.7593   40.1625   -0.1032 C   0  0  1  0  0  0  0  0  0  0  0  0
   38.0846   45.0651   -6.4485 C   0  0  2  0  0  0  0  0  0  0  0  0
   37.0853   44.6642   -5.4477 N   0  0  0  0  0  0  0  0  0  0  0  0
   39.8084   39.6470   -8.6249 C   0  0  0  0  0  0  0  0  0  0  0  0
   37.9977   41.4216   -2.4800 C   0  0  2  0  0  0  0  0  0  0  0  0
   38.7914   40.5293   -1.6955 O   0  0  0  0  0  0  0  0  0  0  0  0
   35.5470   38.7140    0.3490 C   0  0  2  0  0  0  0  0  0  0  0  0
   34.5783   38.0844   -0.5590 N   0  0  0  0  0  0  0  0  0  0  0  0
   37.3645   45.4982   -7.7280 C   0  0  1  0  0  0  0  0  0  0  0  0
   36.5780   46.6619   -7.4552 O   0  0  0  0  0  0  0  0  0  0  0  0
   39.2020   41.0490   -8.5035 C   0  0  2  0  0  0  0  0  0  0  0  0
   40.0052   41.9962   -9.2912 N   0  0  0  0  0  0  0  0  0  0  0  0
   36.5953   41.4911   -1.8787 C   0  0  2  0  0  0  0  0  0  0  0  0
   36.1401   40.1846   -1.4901 O   0  0  0  0  0  0  0  0  0  0  0  0
   34.9958   38.6556    1.7797 C   0  0  1  0  0  0  0  0  0  0  0  0
   36.0014   39.0464    2.7183 O   0  0  0  0  0  0  0  0  0  0  0  0
   38.3896   45.8180   -8.8177 C   0  0  2  0  0  0  0  0  0  0  0  0
   37.7126   46.1152  -10.0417 O   0  0  0  0  0  0  0  0  0  0  0  0
   39.1278   41.5478   -7.0550 C   0  0  2  0  0  0  0  0  0  0  0  0
   35.8005   41.9690   -3.0837 C   0  0  2  0  0  0  0  0  0  0  0  0
   36.4795   41.4701   -4.2565 O   0  0  0  0  0  0  0  0  0  0  0  0
   33.7872   39.5791    1.9412 C   0  0  2  0  0  0  0  0  0  0  0  0
   32.7019   39.0594    1.1678 O   0  0  0  0  0  0  0  0  0  0  0  0
   39.3143   44.6165   -9.0191 C   0  0  2  0  0  0  0  0  0  0  0  0
   39.9763   44.2857   -7.7824 O   0  0  0  0  0  0  0  0  0  0  0  0
   38.5268   40.5421   -6.0753 C   0  0  2  0  0  0  0  0  0  0  0  0
   38.7694   40.9851   -4.7301 O   0  0  0  0  0  0  0  0  0  0  0  0
   35.7495   43.4983   -3.0868 C   0  0  0  0  0  0  0  0  0  0  0  0
   37.0837   44.0105   -3.1104 O   0  0  0  0  0  0  0  0  0  0  0  0
   34.1646   40.9820    1.4581 C   0  0  1  0  0  0  0  0  0  0  0  0
   34.5390   40.9000    0.0716 O   0  0  0  0  0  0  0  0  0  0  0  0
   40.3489   44.9997  -10.0803 C   0  0  0  0  0  0  0  0  0  0  0  0
   40.7323   46.4103   -9.9249 O   0  0  0  0  0  0  0  0  0  0  0  0
   39.1281   39.1471   -6.2838 C   0  0  1  0  0  0  0  0  0  0  0  0
   38.4890   38.2050   -5.4195 O   0  0  0  0  0  0  0  0  0  0  0  0
   33.0113   41.9751    1.6069 C   0  0  0  0  0  0  0  0  0  0  0  0
   33.1988   43.0801    0.6563 N   0  0  0  0  0  0  0  0  0  0  0  0
  1  2  1  6  0  0  0
  1  7  1  0  0  0  0
  1 30  1  0  0  0  0
  3  4  1  1  0  0  0
  3  9  1  0  0  0  0
  3 39  1  0  0  0  0
  5 10  1  0  0  0  0
  5 26  1  0  0  0  0
  5 32  1  6  0  0  0
  6 12  1  0  0  0  0
  6 36  1  0  0  0  0
  6 19  1  6  0  0  0
  7  8  1  1  0  0  0
  7 14  1  0  0  0  0
  9 16  1  0  0  0  0
 10 11  1  1  0  0  0
 10 18  1  0  0  0  0
 12 13  1  6  0  0  0
 12 20  1  0  0  0  0
 14 15  1  1  0  0  0
 14 22  1  0  0  0  0
 16 17  1  6  0  0  0
 16 24  1  0  0  0  0
 18 19  1  6  0  0  0
 18 25  1  0  0  0  0
 20 21  1  1  0  0  0
 20 27  1  0  0  0  0
 22 23  1  6  0  0  0
 22 29  1  0  0  0  0
 24  2  1  6  0  0  0
 24 31  1  0  0  0  0
 25 26  1  0  0  0  0
 25 33  1  6  0  0  0
 27 28  1  6  0  0  0
 27 35  1  0  0  0  0
 29 30  1  0  0  0  0
 29 37  1  6  0  0  0
 31 32  1  1  0  0  0
 31 39  1  0  0  0  0
 33 34  1  0  0  0  0
 35 36  1  0  0  0  0
 35 41  1  6  0  0  0
 37 38  1  0  0  0  0
 39 40  1  1  0  0  0
 41 42  1  0  0  0  0
M  END
>  <CHROM.1>
-165.68625551,-174.12524626,-168.86709017,124.51981885,-115.33023140,58.07273153
37.06846216,140.27223620,-156.23959664,37.26263570,41.82413484,-4.33229645
0.74594978,0.99119887,-0.44456949

>  <Name>
3c44_lig

>  <RI>
0

>  <Rbt.Current_Directory>
/home/itssahil/PROJECTS/Mol_Feturizer/New_Systems/rnas/3c44

>  <Rbt.Executable>
rbdock ($Id: //depot/dev/client3/rdock/2013.1/src/exe/rbdock.cxx#4 $)

>  <Rbt.Library>
libRbt.so (2013.1, Build901 2013/11/27)

>  <Rbt.Parameter_File>
/export/apps/rDock/src/rDock_2013.1_src/data/scripts/dock_solv.prm

>  <Rbt.Receptor>
prm/blind_docking_80.prm

>  <SCORE>
19.9413

>  <SCORE.INTER>
6.9016

>  <SCORE.INTER.CONST>
1

>  <SCORE.INTER.POLAR>
-0.651551

>  <SCORE.INTER.ROT>
9

>  <SCORE.INTER.SOLV>
27.9283

>  <SCORE.INTER.VDW>
-12.1365

>  <SCORE.INTER.norm>
0.164324

>  <SCORE.INTRA>
8.78834

>  <SCORE.INTRA.DIHEDRAL>
9.65066

>  <SCORE.INTRA.DIHEDRAL.0>
14.8538

>  <SCORE.INTRA.POLAR>
0

>  <SCORE.INTRA.POLAR.0>
0

>  <SCORE.INTRA.REPUL>
0

>  <SCORE.INTRA.REPUL.0>
0

>  <SCORE.INTRA.SOLV>
2.47403

>  <SCORE.INTRA.SOLV.lig_0>
-100.951

>  <SCORE.INTRA.VDW>
2.72599

>  <SCORE.INTRA.VDW.0>
-5.71388

>  <SCORE.INTRA.norm>
0.209246

>  <SCORE.RESTR>
4.25133

>  <SCORE.RESTR.CAVITY>
4.25133

>  <SCORE.RESTR.norm>
0.101222

>  <SCORE.SYSTEM>
0

>  <SCORE.SYSTEM.CONST>
0

>  <SCORE.SYSTEM.DIHEDRAL>
0

>  <SCORE.SYSTEM.SOLV>
0

>  <SCORE.SYSTEM.norm>
0

>  <SCORE.heavy>
42

>  <SCORE.norm>
0.474792

>  <RMSD>
13.258

$$$$
3c44_lig
 OpenBabel11021811463D
libRbt.so/2013.1/901 2013/11/27
 42 45  0  0  0  0  0  0  0  0999 V2000
   38.1424   43.5634   -8.3861 C   0  0  2  0  0  0  0  0  0  0  0  0
   38.7126   43.4740   -7.0714 O   0  0  0  0  0  0  0  0  0  0  0  0
   37.3620   39.5561   -6.9474 C   0  0  2  0  0  0  0  0  0  0  0  0
   36.9618   38.1617   -6.7039 N   0  0  0  0  0  0  0  0  0  0  0  0
   36.0038   42.2787   -4.1823 C   0  0  1  0  0  0  0  0  0  0  0  0
   35.9311   40.4881   -0.3983 C   0  0  1  0  0  0  0  0  0  0  0  0
   39.2018   44.0966   -9.3564 C   0  0  2  0  0  0  0  0  0  0  0  0
   40.4195   43.2747   -9.3059 N   0  0  0  0  0  0  0  0  0  0  0  0
   38.8642   39.7357   -6.7105 C   0  0  0  0  0  0  0  0  0  0  0  0
   37.2528   42.3900   -3.3068 C   0  0  2  0  0  0  0  0  0  0  0  0
   38.1486   41.3147   -3.5951 O   0  0  0  0  0  0  0  0  0  0  0  0
   36.0188   38.9783   -0.1520 C   0  0  2  0  0  0  0  0  0  0  0  0
   35.1665   38.2997   -1.1381 N   0  0  0  0  0  0  0  0  0  0  0  0
   39.5659   45.5493   -9.0397 C   0  0  1  0  0  0  0  0  0  0  0  0
   40.4335   46.0510  -10.0609 O   0  0  0  0  0  0  0  0  0  0  0  0
   39.2356   41.1617   -7.1307 C   0  0  2  0  0  0  0  0  0  0  0  0
   40.6626   41.3926   -6.8599 N   0  0  0  0  0  0  0  0  0  0  0  0
   36.6262   42.1539   -1.9340 C   0  0  2  0  0  0  0  0  0  0  0  0
   36.2611   40.7739   -1.7689 O   0  0  0  0  0  0  0  0  0  0  0  0
   35.5302   38.6178    1.2570 C   0  0  1  0  0  0  0  0  0  0  0  0
   36.4661   39.0676    2.2402 O   0  0  0  0  0  0  0  0  0  0  0  0
   38.2970   46.4019   -8.9826 C   0  0  2  0  0  0  0  0  0  0  0  0
   38.6302   47.7327   -8.5789 O   0  0  0  0  0  0  0  0  0  0  0  0
   38.4141   42.2347   -6.4052 C   0  0  2  0  0  0  0  0  0  0  0  0
   35.3695   43.0016   -2.0536 C   0  0  2  0  0  0  0  0  0  0  0  0
   35.0046   43.0128   -3.4508 O   0  0  0  0  0  0  0  0  0  0  0  0
   34.1696   39.2537    1.5465 C   0  0  2  0  0  0  0  0  0  0  0  0
   33.1853   38.6405    0.7090 O   0  0  0  0  0  0  0  0  0  0  0  0
   37.3143   45.7910   -7.9824 C   0  0  2  0  0  0  0  0  0  0  0  0
   36.9979   44.4367   -8.3602 O   0  0  0  0  0  0  0  0  0  0  0  0
   36.9086   41.9774   -6.4034 C   0  0  2  0  0  0  0  0  0  0  0  0
   36.2754   42.8649   -5.4673 O   0  0  0  0  0  0  0  0  0  0  0  0
   35.6594   44.4171   -1.5497 C   0  0  0  0  0  0  0  0  0  0  0  0
   34.4257   45.1251   -1.4093 O   0  0  0  0  0  0  0  0  0  0  0  0
   34.2518   40.7560    1.2632 C   0  0  1  0  0  0  0  0  0  0  0  0
   34.5957   40.9394   -0.1215 O   0  0  0  0  0  0  0  0  0  0  0  0
   36.0458   46.6479   -7.9954 C   0  0  0  0  0  0  0  0  0  0  0  0
   36.3281   47.9756   -7.4311 O   0  0  0  0  0  0  0  0  0  0  0  0
   36.6017   40.5212   -6.0342 C   0  0  1  0  0  0  0  0  0  0  0  0
   35.1959   40.2795   -6.1254 O   0  0  0  0  0  0  0  0  0  0  0  0
   32.9314   41.4722    1.5496 C   0  0  0  0  0  0  0  0  0  0  0  0
   33.0018   42.8439    1.0270 N   0  0  0  0  0  0  0  0  0  0  0  0
  1  2  1  1  0  0  0
  1  7  1  0  0  0  0
  1 30  1  0  0  0  0
  3  4  1  1  0  0  0
  3  9  1  0  0  0  0
  3 39  1  0  0  0  0
  5 10  1  0  0  0  0
  5 26  1  0  0  0  0
  5 32  1  6  0  0  0
  6 12  1  0  0  0  0
  6 36  1  0  0  0  0
  6 19  1  6  0  0  0
  7  8  1  1  0  0  0
  7 14  1  0  0  0  0
  9 16  1  0  0  0  0
 10 11  1  6  0  0  0
 10 18  1  0  0  0  0
 12 13  1  6  0  0  0
 12 20  1  0  0  0  0
 14 15  1  6  0  0  0
 14 22  1  0  0  0  0
 16 17  1  1  0  0  0
 16 24  1  0  0  0  0
 18 19  1  6  0  0  0
 18 25  1  0  0  0  0
 20 21  1  1  0  0  0
 20 27  1  0  0  0  0
 22 23  1  1  0  0  0
 22 29  1  0  0  0  0
 24  2  1  6  0  0  0
 24 31  1  0  0  0  0
 25 26  1  0  0  0  0
 25 33  1  6  0  0  0
 27 28  1  6  0  0  0
 27 35  1  0  0  0  0
 29 30  1  0  0  0  0
 29 37  1  6  0  0  0
 31 32  1  1  0  0  0
 31 39  1  0  0  0  0
 33 34  1  0  0  0  0
 35 36  1  0  0  0  0
 35 41  1  6  0  0  0
 37 38  1  0  0  0  0
 39 40  1  6  0  0  0
 41 42  1  0  0  0  0
M  END
>  <CHROM.1>
-134.39935220,84.83676966,-160.68414286,168.08507329,71.21797584,-168.39081641
-67.87060498,-97.96010669,-169.61195470,36.70877005,42.34236940,-4.34778569
-0.82828477,-1.01338155,2.70528103

>  <Name>
3c44_lig

>  <RI>
0

>  <Rbt.Current_Directory>
/home/itssahil/PROJECTS/Mol_Feturizer/New_Systems/rnas/3c44

>  <Rbt.Executable>
rbdock ($Id: //depot/dev/client3/rdock/2013.1/src/exe/rbdock.cxx#4 $)

>  <Rbt.Library>
libRbt.so (2013.1, Build901 2013/11/27)

>  <Rbt.Parameter_File>
/export/apps/rDock/src/rDock_2013.1_src/data/scripts/dock_solv.prm

>  <Rbt.Receptor>
prm/blind_docking_80.prm

>  <SCORE>
-7.62292

>  <SCORE.INTER>
-16.7037

>  <SCORE.INTER.CONST>
1

>  <SCORE.INTER.POLAR>
-1.77908

>  <SCORE.INTER.ROT>
9

>  <SCORE.INTER.SOLV>
24.917

>  <SCORE.INTER.VDW>
-23.1112

>  <SCORE.INTER.norm>
-0.397708

>  <SCORE.INTRA>
6.91322

>  <SCORE.INTRA.DIHEDRAL>
3.44049

>  <SCORE.INTRA.DIHEDRAL.0>
14.8538

>  <SCORE.INTRA.POLAR>
0

>  <SCORE.INTRA.POLAR.0>
0

>  <SCORE.INTRA.REPUL>
0

>  <SCORE.INTRA.REPUL.0>
0

>  <SCORE.INTRA.SOLV>
-0.0487105

>  <SCORE.INTRA.SOLV.lig_0>
-100.951

>  <SCORE.INTRA.VDW>
5.21733

>  <SCORE.INTRA.VDW.0>
-5.71388

>  <SCORE.INTRA.norm>
0.164601

>  <SCORE.RESTR>
2.16758

>  <SCORE.RESTR.CAVITY>
2.16758

>  <SCORE.RESTR.norm>
0.051609

>  <SCORE.SYSTEM>
0

>  <SCORE.SYSTEM.CONST>
0

>  <SCORE.SYSTEM.DIHEDRAL>
0

>  <SCORE.SYSTEM.SOLV>
0

>  <SCORE.SYSTEM.norm>
0

>  <SCORE.heavy>
42

>  <SCORE.norm>
-0.181498

>  <RMSD>
13.263

$$$$
3c44_lig
 OpenBabel11021811463D
libRbt.so/2013.1/901 2013/11/27
 42 45  0  0  0  0  0  0  0  0999 V2000
   38.4292   44.4555   -6.9902 C   0  0  2  0  0  0  0  0  0  0  0  0
   37.2500   43.7007   -7.3088 O   0  0  0  0  0  0  0  0  0  0  0  0
   36.4233   39.6402   -7.1732 C   0  0  2  0  0  0  0  0  0  0  0  0
   36.2372   38.1999   -6.9392 N   0  0  0  0  0  0  0  0  0  0  0  0
   35.2601   42.1405   -4.1032 C   0  0  1  0  0  0  0  0  0  0  0  0
   36.0600   40.3764   -0.4507 C   0  0  1  0  0  0  0  0  0  0  0  0
   38.0642   45.9411   -6.9017 C   0  0  2  0  0  0  0  0  0  0  0  0
   36.9633   46.1543   -5.9511 N   0  0  0  0  0  0  0  0  0  0  0  0
   37.9105   40.0041   -7.1425 C   0  0  0  0  0  0  0  0  0  0  0  0
   36.6844   42.3142   -3.5735 C   0  0  2  0  0  0  0  0  0  0  0  0
   37.5282   41.2862   -4.0959 O   0  0  0  0  0  0  0  0  0  0  0  0
   36.1417   38.8657   -0.2082 C   0  0  2  0  0  0  0  0  0  0  0  0
   35.1398   38.2071   -1.0576 N   0  0  0  0  0  0  0  0  0  0  0  0
   37.6585   46.4971   -8.2689 C   0  0  1  0  0  0  0  0  0  0  0  0
   37.4818   47.9134   -8.1680 O   0  0  0  0  0  0  0  0  0  0  0  0
   38.0388   41.4769   -7.5459 C   0  0  2  0  0  0  0  0  0  0  0  0
   39.4507   41.8811   -7.4686 N   0  0  0  0  0  0  0  0  0  0  0  0
   36.4414   42.0451   -2.0898 C   0  0  2  0  0  0  0  0  0  0  0  0
   36.1985   40.6481   -1.8564 O   0  0  0  0  0  0  0  0  0  0  0  0
   35.8499   38.5238    1.2588 C   0  0  1  0  0  0  0  0  0  0  0  0
   36.9281   38.9515    2.0951 O   0  0  0  0  0  0  0  0  0  0  0  0
   38.7479   46.1900   -9.2982 C   0  0  2  0  0  0  0  0  0  0  0  0
   38.3170   46.6130  -10.5945 O   0  0  0  0  0  0  0  0  0  0  0  0
   37.2061   42.4157   -6.6640 C   0  0  2  0  0  0  0  0  0  0  0  0
   35.1560   42.8279   -1.8731 C   0  0  2  0  0  0  0  0  0  0  0  0
   34.4463   42.8221   -3.1307 O   0  0  0  0  0  0  0  0  0  0  0  0
   34.5618   39.1978    1.7345 C   0  0  2  0  0  0  0  0  0  0  0  0
   33.4522   38.6086    1.0504 O   0  0  0  0  0  0  0  0  0  0  0  0
   39.0282   44.6866   -9.3137 C   0  0  2  0  0  0  0  0  0  0  0  0
   39.4302   44.2422   -8.0030 O   0  0  0  0  0  0  0  0  0  0  0  0
   35.7600   41.9678   -6.4617 C   0  0  2  0  0  0  0  0  0  0  0  0
   35.1656   42.7412   -5.4066 O   0  0  0  0  0  0  0  0  0  0  0  0
   35.4954   44.2557   -1.4400 C   0  0  0  0  0  0  0  0  0  0  0  0
   34.2828   44.9645   -1.1749 O   0  0  0  0  0  0  0  0  0  0  0  0
   34.6426   40.6962    1.4311 C   0  0  1  0  0  0  0  0  0  0  0  0
   34.7902   40.8651    0.0101 O   0  0  0  0  0  0  0  0  0  0  0  0
   40.1542   44.4347  -10.3198 C   0  0  0  0  0  0  0  0  0  0  0  0
   39.7276   44.8411  -11.6666 O   0  0  0  0  0  0  0  0  0  0  0  0
   35.6913   40.4748   -6.1193 C   0  0  1  0  0  0  0  0  0  0  0  0
   34.3277   40.0576   -6.0223 O   0  0  0  0  0  0  0  0  0  0  0  0
   33.3961   41.4493    1.8974 C   0  0  0  0  0  0  0  0  0  0  0  0
   32.2029   40.8128    1.3223 N   0  0  0  0  0  0  0  0  0  0  0  0
  1  2  1  6  0  0  0
  1  7  1  0  0  0  0
  1 30  1  0  0  0  0
  3  4  1  1  0  0  0
  3  9  1  0  0  0  0
  3 39  1  0  0  0  0
  5 10  1  0  0  0  0
  5 26  1  0  0  0  0
  5 32  1  6  0  0  0
  6 12  1  0  0  0  0
  6 36  1  0  0  0  0
  6 19  1  6  0  0  0
  7  8  1  1  0  0  0
  7 14  1  0  0  0  0
  9 16  1  0  0  0  0
 10 11  1  6  0  0  0
 10 18  1  0  0  0  0
 12 13  1  6  0  0  0
 12 20  1  0  0  0  0
 14 15  1  1  0  0  0
 14 22  1  0  0  0  0
 16 17  1  1  0  0  0
 16 24  1  0  0  0  0
 18 19  1  6  0  0  0
 18 25  1  0  0  0  0
 20 21  1  1  0  0  0
 20 27  1  0  0  0  0
 22 23  1  6  0  0  0
 22 29  1  0  0  0  0
 24  2  1  6  0  0  0
 24 31  1  0  0  0  0
 25 26  1  0  0  0  0
 25 33  1  6  0  0  0
 27 28  1  6  0  0  0
 27 35  1  0  0  0  0
 29 30  1  0  0  0  0
 29 37  1  6  0  0  0
 31 32  1  1  0  0  0
 31 39  1  0  0  0  0
 33 34  1  0  0  0  0
 35 36  1  0  0  0  0
 35 41  1  6  0  0  0
 37 38  1  0  0  0  0
 39 40  1  6  0  0  0
 41 42  1  0  0  0  0
M  END
>  <CHROM.1>
-144.15894174,76.19586603,-166.43383864,176.05613112,-83.22674904,-177.17356722
-62.03324826,-92.89361096,-53.98569672,36.46997854,42.27326966,-4.39135266
0.52332142,1.17777342,-0.09026164

>  <Name>
3c44_lig

>  <RI>
0

>  <Rbt.Current_Directory>
/home/itssahil/PROJECTS/Mol_Feturizer/New_Systems/rnas/3c44

>  <Rbt.Executable>
rbdock ($Id: //depot/dev/client3/rdock/2013.1/src/exe/rbdock.cxx#4 $)

>  <Rbt.Library>
libRbt.so (2013.1, Build901 2013/11/27)

>  <Rbt.Parameter_File>
/export/apps/rDock/src/rDock_2013.1_src/data/scripts/dock_solv.prm

>  <Rbt.Receptor>
prm/blind_docking_100.prm

>  <SCORE>
2.98716

>  <SCORE.INTER>
-8.17031

>  <SCORE.INTER.CONST>
1

>  <SCORE.INTER.POLAR>
-0.766691

>  <SCORE.INTER.ROT>
9

>  <SCORE.INTER.SOLV>
26.389

>  <SCORE.INTER.VDW>
-21.2876

>  <SCORE.INTER.norm>
-0.194531

>  <SCORE.INTRA>
6.75635

>  <SCORE.INTRA.DIHEDRAL>
-0.929558

>  <SCORE.INTRA.DIHEDRAL.0>
14.8538

>  <SCORE.INTRA.POLAR>
0

>  <SCORE.INTRA.POLAR.0>
0

>  <SCORE.INTRA.REPUL>
0

>  <SCORE.INTRA.REPUL.0>
0

>  <SCORE.INTRA.SOLV>
1.10237

>  <SCORE.INTRA.SOLV.lig_0>
-100.951

>  <SCORE.INTRA.VDW>
6.66995

>  <SCORE.INTRA.VDW.0>
-5.71388

>  <SCORE.INTRA.norm>
0.160866

>  <SCORE.RESTR>
4.40112

>  <SCORE.RESTR.CAVITY>
4.40112

>  <SCORE.RESTR.norm>
0.104788

>  <SCORE.SYSTEM>
0

>  <SCORE.SYSTEM.CONST>
0

>  <SCORE.SYSTEM.DIHEDRAL>
0

>  <SCORE.SYSTEM.SOLV>
0

>  <SCORE.SYSTEM.norm>
0

>  <SCORE.heavy>
42

>  <SCORE.norm>
0.0711228

>  <RMSD>
13.287

$$$$
3c44_lig
 OpenBabel11021811463D
libRbt.so/2013.1/901 2013/11/27
 42 45  0  0  0  0  0  0  0  0999 V2000
   39.3015   40.9029   -3.8092 C   0  0  2  0  0  0  0  0  0  0  0  0
   39.2913   41.4488   -5.1372 O   0  0  0  0  0  0  0  0  0  0  0  0
   37.6321   44.9517   -6.6091 C   0  0  2  0  0  0  0  0  0  0  0  0
   36.8537   46.1064   -7.0830 N   0  0  0  0  0  0  0  0  0  0  0  0
   36.8030   43.4758   -2.8034 C   0  0  1  0  0  0  0  0  0  0  0  0
   33.5963   41.9964   -0.6904 C   0  0  1  0  0  0  0  0  0  0  0  0
   40.4716   39.9221   -3.6799 C   0  0  2  0  0  0  0  0  0  0  0  0
   41.7391   40.5665   -4.0531 N   0  0  0  0  0  0  0  0  0  0  0  0
   37.1772   43.6693   -7.3118 C   0  0  0  0  0  0  0  0  0  0  0  0
   36.6794   43.0637   -1.3358 C   0  0  2  0  0  0  0  0  0  0  0  0
   36.6396   41.6393   -1.2303 O   0  0  0  0  0  0  0  0  0  0  0  0
   32.7750   42.8777    0.2565 C   0  0  2  0  0  0  0  0  0  0  0  0
   33.6692   43.8881    0.8384 N   0  0  0  0  0  0  0  0  0  0  0  0
   40.2617   38.6862   -4.5583 C   0  0  1  0  0  0  0  0  0  0  0  0
   41.2939   37.7335   -4.2856 O   0  0  0  0  0  0  0  0  0  0  0  0
   38.1274   42.5438   -6.8895 C   0  0  2  0  0  0  0  0  0  0  0  0
   37.6849   41.2798   -7.4974 N   0  0  0  0  0  0  0  0  0  0  0  0
   35.2900   43.6191   -1.0291 C   0  0  2  0  0  0  0  0  0  0  0  0
   34.2711   42.8225   -1.6555 O   0  0  0  0  0  0  0  0  0  0  0  0
   32.1594   42.0481    1.3909 C   0  0  1  0  0  0  0  0  0  0  0  0
   31.1143   41.2120    0.8874 O   0  0  0  0  0  0  0  0  0  0  0  0
   38.8977   38.0619   -4.2586 C   0  0  2  0  0  0  0  0  0  0  0  0
   38.6591   36.9749   -5.1567 O   0  0  0  0  0  0  0  0  0  0  0  0
   38.2038   42.3614   -5.3685 C   0  0  2  0  0  0  0  0  0  0  0  0
   35.3738   44.9716   -1.7188 C   0  0  2  0  0  0  0  0  0  0  0  0
   36.2858   44.8191   -2.8280 O   0  0  0  0  0  0  0  0  0  0  0  0
   33.2141   41.1664    2.0617 C   0  0  2  0  0  0  0  0  0  0  0  0
   34.1425   42.0039    2.7565 O   0  0  0  0  0  0  0  0  0  0  0  0
   37.8037   39.1176   -4.4256 C   0  0  2  0  0  0  0  0  0  0  0  0
   38.0529   40.2347   -3.5497 O   0  0  0  0  0  0  0  0  0  0  0  0
   38.4194   43.6584   -4.5913 C   0  0  2  0  0  0  0  0  0  0  0  0
   38.1862   43.4199   -3.1936 O   0  0  0  0  0  0  0  0  0  0  0  0
   35.8846   46.0189   -0.7270 C   0  0  0  0  0  0  0  0  0  0  0  0
   34.9865   46.0891    0.3826 O   0  0  0  0  0  0  0  0  0  0  0  0
   33.9337   40.3464    0.9876 C   0  0  1  0  0  0  0  0  0  0  0  0
   34.5649   41.2553    0.0685 O   0  0  0  0  0  0  0  0  0  0  0  0
   36.4672   38.4615   -4.0698 C   0  0  0  0  0  0  0  0  0  0  0  0
   36.0946   37.4835   -5.1020 O   0  0  0  0  0  0  0  0  0  0  0  0
   37.4838   44.7627   -5.0973 C   0  0  1  0  0  0  0  0  0  0  0  0
   37.7635   45.9894   -4.4190 O   0  0  0  0  0  0  0  0  0  0  0  0
   34.9944   39.4186    1.5814 C   0  0  0  0  0  0  0  0  0  0  0  0
   35.7671   40.1525    2.5934 N   0  0  0  0  0  0  0  0  0  0  0  0
  1  2  1  6  0  0  0
  1  7  1  0  0  0  0
  1 30  1  0  0  0  0
  3  4  1  6  0  0  0
  3  9  1  0  0  0  0
  3 39  1  0  0  0  0
  5 10  1  0  0  0  0
  5 26  1  0  0  0  0
  5 32  1  1  0  0  0
  6 12  1  0  0  0  0
  6 36  1  0  0  0  0
  6 19  1  6  0  0  0
  7  8  1  6  0  0  0
  7 14  1  0  0  0  0
  9 16  1  0  0  0  0
 10 11  1  6  0  0  0
 10 18  1  0  0  0  0
 12 13  1  1  0  0  0
 12 20  1  0  0  0  0
 14 15  1  1  0  0  0
 14 22  1  0  0  0  0
 16 17  1  6  0  0  0
 16 24  1  0  0  0  0
 18 19  1  6  0  0  0
 18 25  1  0  0  0  0
 20 21  1  6  0  0  0
 20 27  1  0  0  0  0
 22 23  1  6  0  0  0
 22 29  1  0  0  0  0
 24  2  1  6  0  0  0
 24 31  1  0  0  0  0
 25 26  1  0  0  0  0
 25 33  1  1  0  0  0
 27 28  1  6  0  0  0
 27 35  1  0  0  0  0
 29 30  1  0  0  0  0
 29 37  1  1  0  0  0
 31 32  1  1  0  0  0
 31 39  1  0  0  0  0
 33 34  1  0  0  0  0
 35 36  1  0  0  0  0
 35 41  1  1  0  0  0
 37 38  1  0  0  0  0
 39 40  1  1  0  0  0
 41 42  1  0  0  0  0
M  END
>  <CHROM.1>
178.57856890,174.15273480,68.06173212,104.95036372,-165.33606619,-59.51499152
-70.05197560,-83.21113843,-44.06203560,36.61373166,41.91771032,-2.60948244
-0.10171748,-0.89347013,2.76328395

>  <Name>
3c44_lig

>  <RI>
224

>  <Rbt.Current_Directory>
/home/itssahil/PROJECTS/Mol_Feturizer/New_Systems/rnas/3c44

>  <Rbt.Executable>
rbdock ($Id: //depot/dev/client3/rdock/2013.1/src/exe/rbdock.cxx#4 $)

>  <Rbt.Library>
libRbt.so (2013.1, Build901 2013/11/27)

>  <Rbt.Parameter_File>
/export/apps/rDock/src/rDock_2013.1_src/data/scripts/dock_solv.prm

>  <Rbt.Receptor>
prm/blind_docking_60.prm

>  <SCORE>
27.1925

>  <SCORE.INTER>
11.9113

>  <SCORE.INTER.CONST>
1

>  <SCORE.INTER.POLAR>
-1.40897

>  <SCORE.INTER.ROT>
9

>  <SCORE.INTER.SOLV>
27.9842

>  <SCORE.INTER.VDW>
-6.29062

>  <SCORE.INTER.norm>
0.283602

>  <SCORE.INTRA>
8.79794

>  <SCORE.INTRA.DIHEDRAL>
-3.7085

>  <SCORE.INTRA.DIHEDRAL.0>
14.8538

>  <SCORE.INTRA.POLAR>
0

>  <SCORE.INTRA.POLAR.0>
0

>  <SCORE.INTRA.REPUL>
0

>  <SCORE.INTRA.REPUL.0>
0

>  <SCORE.INTRA.SOLV>
2.14981

>  <SCORE.INTRA.SOLV.lig_0>
-100.951

>  <SCORE.INTRA.VDW>
9.57728

>  <SCORE.INTRA.VDW.0>
-5.71388

>  <SCORE.INTRA.norm>
0.209475

>  <SCORE.RESTR>
6.48329

>  <SCORE.RESTR.CAVITY>
6.48329

>  <SCORE.RESTR.norm>
0.154364

>  <SCORE.SYSTEM>
0

>  <SCORE.SYSTEM.CONST>
0

>  <SCORE.SYSTEM.DIHEDRAL>
0

>  <SCORE.SYSTEM.SOLV>
0

>  <SCORE.SYSTEM.norm>
0

>  <SCORE.heavy>
42

>  <SCORE.norm>
0.647441

>  <RMSD>
13.291

$$$$
3c44_lig
 OpenBabel11021811463D
libRbt.so/2013.1/901 2013/11/27
 42 45  0  0  0  0  0  0  0  0999 V2000
   33.9154   43.3787   -0.1054 C   0  0  2  0  0  0  0  0  0  0  0  0
   34.8679   42.5039   -0.7291 O   0  0  0  0  0  0  0  0  0  0  0  0
   35.9343   38.9058    1.0334 C   0  0  2  0  0  0  0  0  0  0  0  0
   36.1142   37.5641    1.6089 N   0  0  0  0  0  0  0  0  0  0  0  0
   36.4955   40.6046   -3.3512 C   0  0  1  0  0  0  0  0  0  0  0  0
   39.7333   41.6378   -5.5777 C   0  0  1  0  0  0  0  0  0  0  0  0
   32.8501   43.7738   -1.1335 C   0  0  2  0  0  0  0  0  0  0  0  0
   32.2364   42.5819   -1.7365 N   0  0  0  0  0  0  0  0  0  0  0  0
   34.7176   39.5999    1.6525 C   0  0  0  0  0  0  0  0  0  0  0  0
   37.6036   39.5505   -3.3415 C   0  0  2  0  0  0  0  0  0  0  0  0
   38.4481   39.7403   -2.2046 O   0  0  0  0  0  0  0  0  0  0  0  0
   40.5278   42.9167   -5.2927 C   0  0  2  0  0  0  0  0  0  0  0  0
   39.6220   43.8943   -4.6740 N   0  0  0  0  0  0  0  0  0  0  0  0
   33.4433   44.6459   -2.2428 C   0  0  1  0  0  0  0  0  0  0  0  0
   32.3882   45.1185   -3.0858 O   0  0  0  0  0  0  0  0  0  0  0  0
   34.6833   41.0386    1.1263 C   0  0  2  0  0  0  0  0  0  0  0  0
   33.4911   41.7205    1.6520 N   0  0  0  0  0  0  0  0  0  0  0  0
   38.3668   39.9684   -4.5968 C   0  0  2  0  0  0  0  0  0  0  0  0
   39.1005   41.1829   -4.3688 O   0  0  0  0  0  0  0  0  0  0  0  0
   41.0953   43.5159   -6.5861 C   0  0  1  0  0  0  0  0  0  0  0  0
   42.1506   42.6960   -7.0950 O   0  0  0  0  0  0  0  0  0  0  0  0
   34.1795   45.8379   -1.6284 C   0  0  2  0  0  0  0  0  0  0  0  0
   34.8245   46.5883   -2.6608 O   0  0  0  0  0  0  0  0  0  0  0  0
   34.6636   41.1174   -0.4054 C   0  0  2  0  0  0  0  0  0  0  0  0
   37.2106   40.2432   -5.5454 C   0  0  2  0  0  0  0  0  0  0  0  0
   36.0961   40.6709   -4.7327 O   0  0  0  0  0  0  0  0  0  0  0  0
   40.0099   43.6405   -7.6566 C   0  0  2  0  0  0  0  0  0  0  0  0
   39.0644   44.6309   -7.2430 O   0  0  0  0  0  0  0  0  0  0  0  0
   35.2223   45.3355   -0.6287 C   0  0  2  0  0  0  0  0  0  0  0  0
   34.5877   44.5481    0.3982 O   0  0  0  0  0  0  0  0  0  0  0  0
   35.7145   40.2473   -1.0918 C   0  0  2  0  0  0  0  0  0  0  0  0
   35.4236   40.1692   -2.4968 O   0  0  0  0  0  0  0  0  0  0  0  0
   36.8702   38.9667   -6.3175 C   0  0  0  0  0  0  0  0  0  0  0  0
   35.8390   39.2543   -7.2645 O   0  0  0  0  0  0  0  0  0  0  0  0
   39.3222   42.2835   -7.8286 C   0  0  1  0  0  0  0  0  0  0  0  0
   38.7319   41.9103   -6.5709 O   0  0  0  0  0  0  0  0  0  0  0  0
   35.8971   46.5607   -0.0066 C   0  0  0  0  0  0  0  0  0  0  0  0
   34.8921   47.4155    0.6415 O   0  0  0  0  0  0  0  0  0  0  0  0
   35.7430   38.8399   -0.4840 C   0  0  1  0  0  0  0  0  0  0  0  0
   36.7914   38.0716   -1.0785 O   0  0  0  0  0  0  0  0  0  0  0  0
   38.2330   42.3183   -8.9014 C   0  0  0  0  0  0  0  0  0  0  0  0
   37.0803   43.0770   -8.3962 N   0  0  0  0  0  0  0  0  0  0  0  0
  1  2  1  6  0  0  0
  1  7  1  0  0  0  0
  1 30  1  0  0  0  0
  3  4  1  1  0  0  0
  3  9  1  0  0  0  0
  3 39  1  0  0  0  0
  5 10  1  0  0  0  0
  5 26  1  0  0  0  0
  5 32  1  1  0  0  0
  6 12  1  0  0  0  0
  6 36  1  0  0  0  0
  6 19  1  1  0  0  0
  7  8  1  6  0  0  0
  7 14  1  0  0  0  0
  9 16  1  0  0  0  0
 10 11  1  1  0  0  0
 10 18  1  0  0  0  0
 12 13  1  6  0  0  0
 12 20  1  0  0  0  0
 14 15  1  6  0  0  0
 14 22  1  0  0  0  0
 16 17  1  1  0  0  0
 16 24  1  0  0  0  0
 18 19  1  1  0  0  0
 18 25  1  0  0  0  0
 20 21  1  6  0  0  0
 20 27  1  0  0  0  0
 22 23  1  6  0  0  0
 22 29  1  0  0  0  0
 24  2  1  1  0  0  0
 24 31  1  0  0  0  0
 25 26  1  0  0  0  0
 25 33  1  1  0  0  0
 27 28  1  1  0  0  0
 27 35  1  0  0  0  0
 29 30  1  0  0  0  0
 29 37  1  1  0  0  0
 31 32  1  6  0  0  0
 31 39  1  0  0  0  0
 33 34  1  0  0  0  0
 35 36  1  0  0  0  0
 35 41  1  6  0  0  0
 37 38  1  0  0  0  0
 39 40  1  6  0  0  0
 41 42  1  0  0  0  0
M  END
>  <CHROM.1>
-101.40322917,73.04143004,-178.89034901,-175.35807060,-55.41413785,-176.46635676
58.09463344,123.19946710,-72.11123346,36.52974563,42.12252836,-3.09352436
2.91145357,-0.94031251,2.79511345

>  <Name>
3c44_lig

>  <RI>
0

>  <Rbt.Current_Directory>
/home/itssahil/PROJECTS/Mol_Feturizer/New_Systems/rnas/3c44

>  <Rbt.Executable>
rbdock ($Id: //depot/dev/client3/rdock/2013.1/src/exe/rbdock.cxx#4 $)

>  <Rbt.Library>
libRbt.so (2013.1, Build901 2013/11/27)

>  <Rbt.Parameter_File>
/export/apps/rDock/src/rDock_2013.1_src/data/scripts/dock_solv.prm

>  <Rbt.Receptor>
prm/blind_docking_100.prm

>  <SCORE>
46.3731

>  <SCORE.INTER>
29.5733

>  <SCORE.INTER.CONST>
1

>  <SCORE.INTER.POLAR>
0

>  <SCORE.INTER.ROT>
9

>  <SCORE.INTER.SOLV>
21.4985

>  <SCORE.INTER.VDW>
2.94937

>  <SCORE.INTER.norm>
0.704126

>  <SCORE.INTRA>
9.42938

>  <SCORE.INTRA.DIHEDRAL>
-0.0465149

>  <SCORE.INTRA.DIHEDRAL.0>
14.8538

>  <SCORE.INTRA.POLAR>
0

>  <SCORE.INTRA.POLAR.0>
0

>  <SCORE.INTRA.REPUL>
0

>  <SCORE.INTRA.REPUL.0>
0

>  <SCORE.INTRA.SOLV>
1.55452

>  <SCORE.INTRA.SOLV.lig_0>
-100.951

>  <SCORE.INTRA.VDW>
8.67538

>  <SCORE.INTRA.VDW.0>
-5.71388

>  <SCORE.INTRA.norm>
0.224509

>  <SCORE.RESTR>
7.37045

>  <SCORE.RESTR.CAVITY>
7.37045

>  <SCORE.RESTR.norm>
0.175487

>  <SCORE.SYSTEM>
0

>  <SCORE.SYSTEM.CONST>
0

>  <SCORE.SYSTEM.DIHEDRAL>
0

>  <SCORE.SYSTEM.SOLV>
0

>  <SCORE.SYSTEM.norm>
0

>  <SCORE.heavy>
42

>  <SCORE.norm>
1.10412

>  <RMSD>
13.318

$$$$
3c44_lig
 OpenBabel11021811463D
libRbt.so/2013.1/901 2013/11/27
 42 45  0  0  0  0  0  0  0  0999 V2000
   37.0241   40.6763   -6.2030 C   0  0  2  0  0  0  0  0  0  0  0  0
   37.0273   41.7325   -5.2303 O   0  0  0  0  0  0  0  0  0  0  0  0
   37.9499   45.7144   -5.9252 C   0  0  2  0  0  0  0  0  0  0  0  0
   38.1182   47.1226   -6.3157 N   0  0  0  0  0  0  0  0  0  0  0  0
   35.1329   42.8180   -3.1355 C   0  0  1  0  0  0  0  0  0  0  0  0
   35.6905   40.1457    0.0567 C   0  0  1  0  0  0  0  0  0  0  0  0
   35.8360   39.7478   -5.9303 C   0  0  2  0  0  0  0  0  0  0  0  0
   34.5770   40.5056   -5.8913 N   0  0  0  0  0  0  0  0  0  0  0  0
   38.0457   44.7997   -7.1496 C   0  0  0  0  0  0  0  0  0  0  0  0
   36.0917   43.2051   -2.0086 C   0  0  2  0  0  0  0  0  0  0  0  0
   37.4191   42.7861   -2.3314 O   0  0  0  0  0  0  0  0  0  0  0  0
   36.0078   38.6772   -0.2447 C   0  0  2  0  0  0  0  0  0  0  0  0
   35.2058   38.2602   -1.4032 N   0  0  0  0  0  0  0  0  0  0  0  0
   36.0085   38.9970   -4.6075 C   0  0  1  0  0  0  0  0  0  0  0  0
   34.9609   38.0316   -4.4736 O   0  0  0  0  0  0  0  0  0  0  0  0
   38.0189   43.3505   -6.6526 C   0  0  2  0  0  0  0  0  0  0  0  0
   38.0473   42.4397   -7.8070 N   0  0  0  0  0  0  0  0  0  0  0  0
   35.5512   42.3123   -0.8934 C   0  0  2  0  0  0  0  0  0  0  0  0
   35.8959   40.9369   -1.1268 O   0  0  0  0  0  0  0  0  0  0  0  0
   35.6586   37.7789    0.9491 C   0  0  1  0  0  0  0  0  0  0  0  0
   36.5758   37.9983    2.0240 O   0  0  0  0  0  0  0  0  0  0  0  0
   37.3635   38.2872   -4.5863 C   0  0  2  0  0  0  0  0  0  0  0  0
   37.5674   37.6792   -3.3081 O   0  0  0  0  0  0  0  0  0  0  0  0
   36.7846   43.0308   -5.8000 C   0  0  2  0  0  0  0  0  0  0  0  0
   34.0550   42.5016   -1.0874 C   0  0  2  0  0  0  0  0  0  0  0  0
   33.8465   42.7698   -2.4910 O   0  0  0  0  0  0  0  0  0  0  0  0
   34.2399   38.0562    1.4492 C   0  0  2  0  0  0  0  0  0  0  0  0
   33.3068   37.6277    0.4533 O   0  0  0  0  0  0  0  0  0  0  0  0
   38.4764   39.3004   -4.8582 C   0  0  2  0  0  0  0  0  0  0  0  0
   38.2623   39.9451   -6.1293 O   0  0  0  0  0  0  0  0  0  0  0  0
   36.4996   44.0524   -4.7011 C   0  0  2  0  0  0  0  0  0  0  0  0
   35.1866   43.8209   -4.1651 O   0  0  0  0  0  0  0  0  0  0  0  0
   33.5732   43.6715   -0.2267 C   0  0  0  0  0  0  0  0  0  0  0  0
   32.1731   43.8635   -0.4405 O   0  0  0  0  0  0  0  0  0  0  0  0
   34.0894   39.5568    1.7126 C   0  0  1  0  0  0  0  0  0  0  0  0
   34.3225   40.2605    0.4798 O   0  0  0  0  0  0  0  0  0  0  0  0
   39.8040   38.5384   -4.8751 C   0  0  0  0  0  0  0  0  0  0  0  0
   40.9123   39.4620   -5.1573 O   0  0  0  0  0  0  0  0  0  0  0  0
   36.5990   45.4831   -5.2435 C   0  0  1  0  0  0  0  0  0  0  0  0
   36.4173   46.4224   -4.1815 O   0  0  0  0  0  0  0  0  0  0  0  0
   32.6988   39.9157    2.2380 C   0  0  0  0  0  0  0  0  0  0  0  0
   31.6820   39.3629    1.3325 N   0  0  0  0  0  0  0  0  0  0  0  0
  1  2  1  1  0  0  0
  1  7  1  0  0  0  0
  1 30  1  0  0  0  0
  3  4  1  6  0  0  0
  3  9  1  0  0  0  0
  3 39  1  0  0  0  0
  5 10  1  0  0  0  0
  5 26  1  0  0  0  0
  5 32  1  6  0  0  0
  6 12  1  0  0  0  0
  6 36  1  0  0  0  0
  6 19  1  6  0  0  0
  7  8  1  1  0  0  0
  7 14  1  0  0  0  0
  9 16  1  0  0  0  0
 10 11  1  6  0  0  0
 10 18  1  0  0  0  0
 12 13  1  6  0  0  0
 12 20  1  0  0  0  0
 14 15  1  6  0  0  0
 14 22  1  0  0  0  0
 16 17  1  6  0  0  0
 16 24  1  0  0  0  0
 18 19  1  6  0  0  0
 18 25  1  0  0  0  0
 20 21  1  1  0  0  0
 20 27  1  0  0  0  0
 22 23  1  1  0  0  0
 22 29  1  0  0  0  0
 24  2  1  1  0  0  0
 24 31  1  0  0  0  0
 25 26  1  0  0  0  0
 25 33  1  1  0  0  0
 27 28  1  6  0  0  0
 27 35  1  0  0  0  0
 29 30  1  0  0  0  0
 29 37  1  6  0  0  0
 31 32  1  6  0  0  0
 31 39  1  0  0  0  0
 33 34  1  0  0  0  0
 35 36  1  0  0  0  0
 35 41  1  6  0  0  0
 37 38  1  0  0  0  0
 39 40  1  1  0  0  0
 41 42  1  0  0  0  0
M  END
>  <CHROM.1>
-114.31134362,56.54462855,177.51154833,165.66874891,-68.13438724,178.56884208
178.98783021,84.57396745,-52.56162706,36.01097568,41.21622096,-2.92944439
-0.84307295,-0.92800867,2.74284772

>  <Name>
3c44_lig

>  <RI>
0

>  <Rbt.Current_Directory>
/home/itssahil/PROJECTS/Mol_Feturizer/New_Systems/rnas/3c44

>  <Rbt.Executable>
rbdock ($Id: //depot/dev/client3/rdock/2013.1/src/exe/rbdock.cxx#4 $)

>  <Rbt.Library>
libRbt.so (2013.1, Build901 2013/11/27)

>  <Rbt.Parameter_File>
/export/apps/rDock/src/rDock_2013.1_src/data/scripts/dock_solv.prm

>  <Rbt.Receptor>
prm/blind_docking_100.prm

>  <SCORE>
-1.79486

>  <SCORE.INTER>
-9.76905

>  <SCORE.INTER.CONST>
1

>  <SCORE.INTER.POLAR>
-0.186921

>  <SCORE.INTER.ROT>
9

>  <SCORE.INTER.SOLV>
26.3116

>  <SCORE.INTER.VDW>
-24.2602

>  <SCORE.INTER.norm>
-0.232597

>  <SCORE.INTRA>
3.25858

>  <SCORE.INTRA.DIHEDRAL>
-3.23585

>  <SCORE.INTRA.DIHEDRAL.0>
14.8538

>  <SCORE.INTRA.POLAR>
0

>  <SCORE.INTRA.POLAR.0>
0

>  <SCORE.INTRA.REPUL>
0.0761878

>  <SCORE.INTRA.REPUL.0>
0

>  <SCORE.INTRA.SOLV>
2.69438

>  <SCORE.INTRA.SOLV.lig_0>
-100.951

>  <SCORE.INTRA.VDW>
3.14838

>  <SCORE.INTRA.VDW.0>
-5.71388

>  <SCORE.INTRA.norm>
0.0775853

>  <SCORE.RESTR>
4.71561

>  <SCORE.RESTR.CAVITY>
4.71561

>  <SCORE.RESTR.norm>
0.112277

>  <SCORE.SYSTEM>
0

>  <SCORE.SYSTEM.CONST>
0

>  <SCORE.SYSTEM.DIHEDRAL>
0

>  <SCORE.SYSTEM.SOLV>
0

>  <SCORE.SYSTEM.norm>
0

>  <SCORE.heavy>
42

>  <SCORE.norm>
-0.0427347

>  <RMSD>
13.335

$$$$
3c44_lig
 OpenBabel11021811463D
libRbt.so/2013.1/901 2013/11/27
 42 45  0  0  0  0  0  0  0  0999 V2000
   37.3495   40.9856   -6.3288 C   0  0  2  0  0  0  0  0  0  0  0  0
   37.2125   41.9575   -5.2808 O   0  0  0  0  0  0  0  0  0  0  0  0
   37.8739   46.0379   -5.6011 C   0  0  2  0  0  0  0  0  0  0  0  0
   37.9601   47.4816   -5.8698 N   0  0  0  0  0  0  0  0  0  0  0  0
   35.1119   42.8132   -3.1648 C   0  0  1  0  0  0  0  0  0  0  0  0
   35.8292   40.1548    0.0390 C   0  0  1  0  0  0  0  0  0  0  0  0
   35.9566   40.5157   -6.7613 C   0  0  2  0  0  0  0  0  0  0  0  0
   35.1109   41.6584   -7.1355 N   0  0  0  0  0  0  0  0  0  0  0  0
   38.1195   45.2350   -6.8819 C   0  0  0  0  0  0  0  0  0  0  0  0
   36.0964   43.1913   -2.0572 C   0  0  2  0  0  0  0  0  0  0  0  0
   37.4137   42.7627   -2.4076 O   0  0  0  0  0  0  0  0  0  0  0  0
   35.9168   38.6613   -0.2919 C   0  0  2  0  0  0  0  0  0  0  0  0
   34.8730   38.3448   -1.2766 N   0  0  0  0  0  0  0  0  0  0  0  0
   35.2649   39.7256   -5.6475 C   0  0  1  0  0  0  0  0  0  0  0  0
   34.0429   39.1756   -6.1490 O   0  0  0  0  0  0  0  0  0  0  0  0
   38.1701   43.7518   -6.5003 C   0  0  2  0  0  0  0  0  0  0  0  0
   38.3437   42.9424   -7.7159 N   0  0  0  0  0  0  0  0  0  0  0  0
   35.5720   42.3011   -0.9324 C   0  0  2  0  0  0  0  0  0  0  0  0
   35.9014   40.9234   -1.1746 O   0  0  0  0  0  0  0  0  0  0  0  0
   35.6941   37.8026    0.9600 C   0  0  1  0  0  0  0  0  0  0  0  0
   36.8126   37.9100    1.8444 O   0  0  0  0  0  0  0  0  0  0  0  0
   36.1769   38.5939   -5.1704 C   0  0  2  0  0  0  0  0  0  0  0  0
   35.5744   37.9281   -4.0575 O   0  0  0  0  0  0  0  0  0  0  0  0
   36.9101   43.2775   -5.7655 C   0  0  2  0  0  0  0  0  0  0  0  0
   34.0736   42.5021   -1.0956 C   0  0  2  0  0  0  0  0  0  0  0  0
   33.8386   42.7738   -2.4943 O   0  0  0  0  0  0  0  0  0  0  0  0
   34.4327   38.2379    1.7077 C   0  0  2  0  0  0  0  0  0  0  0  0
   33.2895   37.9241    0.9072 O   0  0  0  0  0  0  0  0  0  0  0  0
   37.5317   39.1691   -4.7546 C   0  0  2  0  0  0  0  0  0  0  0  0
   38.1333   39.8729   -5.8591 O   0  0  0  0  0  0  0  0  0  0  0  0
   36.4763   44.1835   -4.6150 C   0  0  2  0  0  0  0  0  0  0  0  0
   35.1522   43.8171   -4.1940 O   0  0  0  0  0  0  0  0  0  0  0  0
   33.6184   43.6742   -0.2237 C   0  0  0  0  0  0  0  0  0  0  0  0
   32.2370   43.9378   -0.4789 O   0  0  0  0  0  0  0  0  0  0  0  0
   34.5045   39.7445    1.9702 C   0  0  1  0  0  0  0  0  0  0  0  0
   34.5847   40.4232    0.7044 O   0  0  0  0  0  0  0  0  0  0  0  0
   38.4232   37.9985   -4.3321 C   0  0  0  0  0  0  0  0  0  0  0  0
   39.0383   37.3801   -5.5154 O   0  0  0  0  0  0  0  0  0  0  0  0
   36.5024   45.6571   -5.0379 C   0  0  1  0  0  0  0  0  0  0  0  0
   36.1802   46.4916   -3.9230 O   0  0  0  0  0  0  0  0  0  0  0  0
   33.2845   40.2574    2.7363 C   0  0  0  0  0  0  0  0  0  0  0  0
   32.0809   40.0615    1.9163 N   0  0  0  0  0  0  0  0  0  0  0  0
  1  2  1  1  0  0  0
  1  7  1  0  0  0  0
  1 30  1  0  0  0  0
  3  4  1  6  0  0  0
  3  9  1  0  0  0  0
  3 39  1  0  0  0  0
  5 10  1  0  0  0  0
  5 26  1  0  0  0  0
  5 32  1  6  0  0  0
  6 12  1  0  0  0  0
  6 36  1  0  0  0  0
  6 19  1  6  0  0  0
  7  8  1  1  0  0  0
  7 14  1  0  0  0  0
  9 16  1  0  0  0  0
 10 11  1  6  0  0  0
 10 18  1  0  0  0  0
 12 13  1  6  0  0  0
 12 20  1  0  0  0  0
 14 15  1  6  0  0  0
 14 22  1  0  0  0  0
 16 17  1  6  0  0  0
 16 24  1  0  0  0  0
 18 19  1  6  0  0  0
 18 25  1  0  0  0  0
 20 21  1  1  0  0  0
 20 27  1  0  0  0  0
 22 23  1  1  0  0  0
 22 29  1  0  0  0  0
 24  2  1  1  0  0  0
 24 31  1  0  0  0  0
 25 26  1  0  0  0  0
 25 33  1  1  0  0  0
 27 28  1  6  0  0  0
 27 35  1  0  0  0  0
 29 30  1  0  0  0  0
 29 37  1  6  0  0  0
 31 32  1  6  0  0  0
 31 39  1  0  0  0  0
 33 34  1  0  0  0  0
 35 36  1  0  0  0  0
 35 41  1  6  0  0  0
 37 38  1  0  0  0  0
 39 40  1  1  0  0  0
 41 42  1  0  0  0  0
M  END
>  <CHROM.1>
-81.11830361,47.64990621,169.13842957,160.52700251,-68.32549590,174.53180505
82.90995156,89.73558761,-63.50735937,35.85731209,41.36463368,-2.98127239
-0.74481085,-1.10805691,2.88613284

>  <Name>
3c44_lig

>  <RI>
0

>  <Rbt.Current_Directory>
/home/itssahil/PROJECTS/Mol_Feturizer/New_Systems/rnas/3c44

>  <Rbt.Executable>
rbdock ($Id: //depot/dev/client3/rdock/2013.1/src/exe/rbdock.cxx#4 $)

>  <Rbt.Library>
libRbt.so (2013.1, Build901 2013/11/27)

>  <Rbt.Parameter_File>
/export/apps/rDock/src/rDock_2013.1_src/data/scripts/dock_solv.prm

>  <Rbt.Receptor>
prm/blind_docking_100.prm

>  <SCORE>
-4.32693

>  <SCORE.INTER>
-13.051

>  <SCORE.INTER.CONST>
1

>  <SCORE.INTER.POLAR>
-0.556434

>  <SCORE.INTER.ROT>
9

>  <SCORE.INTER.SOLV>
25.814

>  <SCORE.INTER.VDW>
-25.0506

>  <SCORE.INTER.norm>
-0.310738

>  <SCORE.INTRA>
4.09383

>  <SCORE.INTRA.DIHEDRAL>
-3.81988

>  <SCORE.INTRA.DIHEDRAL.0>
14.8538

>  <SCORE.INTRA.POLAR>
0

>  <SCORE.INTRA.POLAR.0>
0

>  <SCORE.INTRA.REPUL>
0.00320283

>  <SCORE.INTRA.REPUL.0>
0

>  <SCORE.INTRA.SOLV>
3.46542

>  <SCORE.INTRA.SOLV.lig_0>
-100.951

>  <SCORE.INTRA.VDW>
4.25504

>  <SCORE.INTRA.VDW.0>
-5.71388

>  <SCORE.INTRA.norm>
0.0974721

>  <SCORE.RESTR>
4.63024

>  <SCORE.RESTR.CAVITY>
4.63024

>  <SCORE.RESTR.norm>
0.110244

>  <SCORE.SYSTEM>
0

>  <SCORE.SYSTEM.CONST>
0

>  <SCORE.SYSTEM.DIHEDRAL>
0

>  <SCORE.SYSTEM.SOLV>
0

>  <SCORE.SYSTEM.norm>
0

>  <SCORE.heavy>
42

>  <SCORE.norm>
-0.103022

>  <RMSD>
13.356

$$$$
3c44_lig
 OpenBabel11021811463D
libRbt.so/2013.1/901 2013/11/27
 42 45  0  0  0  0  0  0  0  0999 V2000
   37.3536   41.0118   -6.3125 C   0  0  2  0  0  0  0  0  0  0  0  0
   37.2306   41.9615   -5.2426 O   0  0  0  0  0  0  0  0  0  0  0  0
   37.7760   46.0669   -5.4355 C   0  0  2  0  0  0  0  0  0  0  0  0
   37.8234   47.5198   -5.6612 N   0  0  0  0  0  0  0  0  0  0  0  0
   35.0760   42.7251   -3.1026 C   0  0  1  0  0  0  0  0  0  0  0  0
   35.7708   40.0240    0.0480 C   0  0  1  0  0  0  0  0  0  0  0  0
   35.9551   40.5490   -6.7346 C   0  0  2  0  0  0  0  0  0  0  0  0
   35.1028   41.6980   -7.0727 N   0  0  0  0  0  0  0  0  0  0  0  0
   38.0629   45.3093   -6.7351 C   0  0  0  0  0  0  0  0  0  0  0  0
   36.1297   43.0641   -2.0473 C   0  0  2  0  0  0  0  0  0  0  0  0
   37.4100   42.5861   -2.4645 O   0  0  0  0  0  0  0  0  0  0  0  0
   35.7761   38.5327   -0.3038 C   0  0  2  0  0  0  0  0  0  0  0  0
   34.7224   38.2895   -1.2986 N   0  0  0  0  0  0  0  0  0  0  0  0
   35.2805   39.7349   -5.6277 C   0  0  1  0  0  0  0  0  0  0  0  0
   34.0520   39.1937   -6.1229 O   0  0  0  0  0  0  0  0  0  0  0  0
   38.1518   43.8177   -6.3957 C   0  0  2  0  0  0  0  0  0  0  0  0
   38.3661   43.0496   -7.6314 N   0  0  0  0  0  0  0  0  0  0  0  0
   35.6302   42.1931   -0.8963 C   0  0  2  0  0  0  0  0  0  0  0  0
   35.8940   40.8042   -1.1541 O   0  0  0  0  0  0  0  0  0  0  0  0
   35.4972   37.6707    0.9345 C   0  0  1  0  0  0  0  0  0  0  0  0
   36.6144   37.7023    1.8266 O   0  0  0  0  0  0  0  0  0  0  0  0
   36.2006   38.5949   -5.1874 C   0  0  2  0  0  0  0  0  0  0  0  0
   35.6150   37.9052   -4.0800 O   0  0  0  0  0  0  0  0  0  0  0  0
   36.8962   43.2858   -5.6935 C   0  0  2  0  0  0  0  0  0  0  0  0
   34.1341   42.4511   -0.9826 C   0  0  2  0  0  0  0  0  0  0  0  0
   33.8381   42.7333   -2.3675 O   0  0  0  0  0  0  0  0  0  0  0  0
   34.2577   38.1661    1.6813 C   0  0  2  0  0  0  0  0  0  0  0  0
   33.1037   37.9287    0.8701 O   0  0  0  0  0  0  0  0  0  0  0  0
   37.5606   39.1632   -4.7792 C   0  0  2  0  0  0  0  0  0  0  0  0
   38.1454   39.8906   -5.8775 O   0  0  0  0  0  0  0  0  0  0  0  0
   36.4201   44.1448   -4.5239 C   0  0  2  0  0  0  0  0  0  0  0  0
   35.1016   43.7279   -4.1333 O   0  0  0  0  0  0  0  0  0  0  0  0
   33.7692   43.6387   -0.0893 C   0  0  0  0  0  0  0  0  0  0  0  0
   34.3877   44.8194   -0.6056 O   0  0  0  0  0  0  0  0  0  0  0  0
   34.4128   39.6624    1.9657 C   0  0  1  0  0  0  0  0  0  0  0  0
   34.5392   40.3531    0.7101 O   0  0  0  0  0  0  0  0  0  0  0  0
   38.4594   37.9854   -4.3941 C   0  0  0  0  0  0  0  0  0  0  0  0
   39.0394   37.3778   -5.6005 O   0  0  0  0  0  0  0  0  0  0  0  0
   36.4086   45.6303   -4.9038 C   0  0  1  0  0  0  0  0  0  0  0  0
   36.0465   46.4220   -3.7702 O   0  0  0  0  0  0  0  0  0  0  0  0
   33.2188   40.2328    2.7322 C   0  0  0  0  0  0  0  0  0  0  0  0
   33.5259   41.6069    3.1531 N   0  0  0  0  0  0  0  0  0  0  0  0
  1  2  1  1  0  0  0
  1  7  1  0  0  0  0
  1 30  1  0  0  0  0
  3  4  1  6  0  0  0
  3  9  1  0  0  0  0
  3 39  1  0  0  0  0
  5 10  1  0  0  0  0
  5 26  1  0  0  0  0
  5 32  1  6  0  0  0
  6 12  1  0  0  0  0
  6 36  1  0  0  0  0
  6 19  1  6  0  0  0
  7  8  1  1  0  0  0
  7 14  1  0  0  0  0
  9 16  1  0  0  0  0
 10 11  1  6  0  0  0
 10 18  1  0  0  0  0
 12 13  1  6  0  0  0
 12 20  1  0  0  0  0
 14 15  1  6  0  0  0
 14 22  1  0  0  0  0
 16 17  1  6  0  0  0
 16 24  1  0  0  0  0
 18 19  1  6  0  0  0
 18 25  1  0  0  0  0
 20 21  1  1  0  0  0
 20 27  1  0  0  0  0
 22 23  1  1  0  0  0
 22 29  1  0  0  0  0
 24  2  1  1  0  0  0
 24 31  1  0  0  0  0
 25 26  1  0  0  0  0
 25 33  1  1  0  0  0
 27 28  1  6  0  0  0
 27 35  1  0  0  0  0
 29 30  1  0  0  0  0
 29 37  1  6  0  0  0
 31 32  1  6  0  0  0
 31 39  1  0  0  0  0
 33 34  1  0  0  0  0
 35 36  1  0  0  0  0
 35 41  1  6  0  0  0
 37 38  1  0  0  0  0
 39 40  1  1  0  0  0
 41 42  1  0  0  0  0
M  END
>  <CHROM.1>
-80.07260809,41.49545515,168.64387088,164.21518734,-70.87762531,65.18201568
81.91964113,91.68266405,171.16763372,35.91286058,41.38952063,-2.92128369
-0.65498972,-1.17256426,2.98530456

>  <Name>
3c44_lig

>  <RI>
0

>  <Rbt.Current_Directory>
/home/itssahil/PROJECTS/Mol_Feturizer/New_Systems/rnas/3c44

>  <Rbt.Executable>
rbdock ($Id: //depot/dev/client3/rdock/2013.1/src/exe/rbdock.cxx#4 $)

>  <Rbt.Library>
libRbt.so (2013.1, Build901 2013/11/27)

>  <Rbt.Parameter_File>
/export/apps/rDock/src/rDock_2013.1_src/data/scripts/dock_solv.prm

>  <Rbt.Receptor>
prm/blind_docking_80.prm

>  <SCORE>
-5.01655

>  <SCORE.INTER>
-12.7683

>  <SCORE.INTER.CONST>
1

>  <SCORE.INTER.POLAR>
-0.512838

>  <SCORE.INTER.ROT>
9

>  <SCORE.INTER.SOLV>
27.1961

>  <SCORE.INTER.VDW>
-25.4681

>  <SCORE.INTER.norm>
-0.304006

>  <SCORE.INTRA>
4.35226

>  <SCORE.INTRA.DIHEDRAL>
-2.95327

>  <SCORE.INTRA.DIHEDRAL.0>
14.8538

>  <SCORE.INTRA.POLAR>
0

>  <SCORE.INTRA.POLAR.0>
0

>  <SCORE.INTRA.REPUL>
0.0221342

>  <SCORE.INTRA.REPUL.0>
0

>  <SCORE.INTRA.SOLV>
2.60016

>  <SCORE.INTRA.SOLV.lig_0>
-100.951

>  <SCORE.INTRA.VDW>
4.41814

>  <SCORE.INTRA.VDW.0>
-5.71388

>  <SCORE.INTRA.norm>
0.103625

>  <SCORE.RESTR>
3.39946

>  <SCORE.RESTR.CAVITY>
3.39946

>  <SCORE.RESTR.norm>
0.0809395

>  <SCORE.SYSTEM>
0

>  <SCORE.SYSTEM.CONST>
0

>  <SCORE.SYSTEM.DIHEDRAL>
0

>  <SCORE.SYSTEM.SOLV>
0

>  <SCORE.SYSTEM.norm>
0

>  <SCORE.heavy>
42

>  <SCORE.norm>
-0.119442

>  <RMSD>
13.383

$$$$
3c44_lig
 OpenBabel11021811463D
libRbt.so/2013.1/901 2013/11/27
 42 45  0  0  0  0  0  0  0  0999 V2000
   37.4724   44.2563   -7.5930 C   0  0  2  0  0  0  0  0  0  0  0  0
   38.5797   43.9809   -6.7213 O   0  0  0  0  0  0  0  0  0  0  0  0
   38.3762   39.8400   -6.6896 C   0  0  2  0  0  0  0  0  0  0  0  0
   38.3319   38.3868   -6.4660 N   0  0  0  0  0  0  0  0  0  0  0  0
   35.8385   42.1526   -4.3775 C   0  0  1  0  0  0  0  0  0  0  0  0
   35.8880   40.6366   -0.4508 C   0  0  1  0  0  0  0  0  0  0  0  0
   37.8808   43.9422   -9.0360 C   0  0  2  0  0  0  0  0  0  0  0  0
   38.3820   42.5650   -9.1507 N   0  0  0  0  0  0  0  0  0  0  0  0
   39.6706   40.4335   -6.1261 C   0  0  0  0  0  0  0  0  0  0  0  0
   36.9708   42.5578   -3.4326 C   0  0  2  0  0  0  0  0  0  0  0  0
   38.0696   41.6552   -3.5720 O   0  0  0  0  0  0  0  0  0  0  0  0
   36.0391   39.1397   -0.1602 C   0  0  2  0  0  0  0  0  0  0  0  0
   35.1891   38.3987   -1.1023 N   0  0  0  0  0  0  0  0  0  0  0  0
   38.9585   44.9092   -9.5327 C   0  0  1  0  0  0  0  0  0  0  0  0
   39.1916   44.6798  -10.9257 O   0  0  0  0  0  0  0  0  0  0  0  0
   39.7208   41.9109   -6.5297 C   0  0  2  0  0  0  0  0  0  0  0  0
   40.9229   42.5320   -5.9533 N   0  0  0  0  0  0  0  0  0  0  0  0
   36.2895   42.3004   -2.0900 C   0  0  2  0  0  0  0  0  0  0  0  0
   36.1729   40.8905   -1.8376 O   0  0  0  0  0  0  0  0  0  0  0  0
   35.5996   38.8065    1.2715 C   0  0  1  0  0  0  0  0  0  0  0  0
   36.5418   39.3221    2.2157 O   0  0  0  0  0  0  0  0  0  0  0  0
   38.4974   46.3526   -9.3225 C   0  0  2  0  0  0  0  0  0  0  0  0
   39.5496   47.2506   -9.6851 O   0  0  0  0  0  0  0  0  0  0  0  0
   38.4879   42.7005   -6.0725 C   0  0  2  0  0  0  0  0  0  0  0  0
   34.9120   42.8841   -2.3618 C   0  0  2  0  0  0  0  0  0  0  0  0
   34.6654   42.7314   -3.7764 O   0  0  0  0  0  0  0  0  0  0  0  0
   34.2233   39.4002    1.5763 C   0  0  2  0  0  0  0  0  0  0  0  0
   33.2427   38.7244    0.7841 O   0  0  0  0  0  0  0  0  0  0  0  0
   38.1245   46.5623   -7.8541 C   0  0  2  0  0  0  0  0  0  0  0  0
   37.0882   45.6383   -7.4675 O   0  0  0  0  0  0  0  0  0  0  0  0
   37.1559   42.0290   -6.4003 C   0  0  2  0  0  0  0  0  0  0  0  0
   36.1004   42.6915   -5.6850 O   0  0  0  0  0  0  0  0  0  0  0  0
   34.8945   44.3596   -1.9567 C   0  0  0  0  0  0  0  0  0  0  0  0
   35.0847   44.4586   -0.5436 O   0  0  0  0  0  0  0  0  0  0  0  0
   34.2413   40.8947    1.2445 C   0  0  1  0  0  0  0  0  0  0  0  0
   34.5437   41.0464   -0.1536 O   0  0  0  0  0  0  0  0  0  0  0  0
   37.6255   48.0015   -7.7028 C   0  0  0  0  0  0  0  0  0  0  0  0
   36.1940   48.0761   -8.0290 O   0  0  0  0  0  0  0  0  0  0  0  0
   37.1861   40.5414   -6.0299 C   0  0  1  0  0  0  0  0  0  0  0  0
   35.9645   39.9139   -6.4262 O   0  0  0  0  0  0  0  0  0  0  0  0
   32.9022   41.5701    1.5428 C   0  0  0  0  0  0  0  0  0  0  0  0
   32.9086   42.9271    0.9788 N   0  0  0  0  0  0  0  0  0  0  0  0
  1  2  1  1  0  0  0
  1  7  1  0  0  0  0
  1 30  1  0  0  0  0
  3  4  1  1  0  0  0
  3  9  1  0  0  0  0
  3 39  1  0  0  0  0
  5 10  1  0  0  0  0
  5 26  1  0  0  0  0
  5 32  1  6  0  0  0
  6 12  1  0  0  0  0
  6 36  1  0  0  0  0
  6 19  1  6  0  0  0
  7  8  1  1  0  0  0
  7 14  1  0  0  0  0
  9 16  1  0  0  0  0
 10 11  1  6  0  0  0
 10 18  1  0  0  0  0
 12 13  1  6  0  0  0
 12 20  1  0  0  0  0
 14 15  1  6  0  0  0
 14 22  1  0  0  0  0
 16 17  1  1  0  0  0
 16 24  1  0  0  0  0
 18 19  1  6  0  0  0
 18 25  1  0  0  0  0
 20 21  1  1  0  0  0
 20 27  1  0  0  0  0
 22 23  1  1  0  0  0
 22 29  1  0  0  0  0
 24  2  1  6  0  0  0
 24 31  1  0  0  0  0
 25 26  1  0  0  0  0
 25 33  1  6  0  0  0
 27 28  1  6  0  0  0
 27 35  1  0  0  0  0
 29 30  1  0  0  0  0
 29 37  1  6  0  0  0
 31 32  1  1  0  0  0
 31 39  1  0  0  0  0
 33 34  1  0  0  0  0
 35 36  1  0  0  0  0
 35 41  1  6  0  0  0
 37 38  1  0  0  0  0
 39 40  1  6  0  0  0
 41 42  1  0  0  0  0
M  END
>  <CHROM.1>
-98.61957087,73.13668198,-169.06581493,163.85526063,119.10957749,-64.77787818
85.33684100,-89.43452733,-169.73675166,36.73644049,42.46062642,-4.32523460
0.89312680,0.99032268,-0.50607895

>  <Name>
3c44_lig

>  <RI>
0

>  <Rbt.Current_Directory>
/home/itssahil/PROJECTS/Mol_Feturizer/New_Systems/rnas/3c44

>  <Rbt.Executable>
rbdock ($Id: //depot/dev/client3/rdock/2013.1/src/exe/rbdock.cxx#4 $)

>  <Rbt.Library>
libRbt.so (2013.1, Build901 2013/11/27)

>  <Rbt.Parameter_File>
/export/apps/rDock/src/rDock_2013.1_src/data/scripts/dock_solv.prm

>  <Rbt.Receptor>
prm/blind_docking_80.prm

>  <SCORE>
-0.24584

>  <SCORE.INTER>
-15.6897

>  <SCORE.INTER.CONST>
1

>  <SCORE.INTER.POLAR>
-0.88396

>  <SCORE.INTER.ROT>
9

>  <SCORE.INTER.SOLV>
22.1737

>  <SCORE.INTER.VDW>
-24.5045

>  <SCORE.INTER.norm>
-0.373565

>  <SCORE.INTRA>
12.8234

>  <SCORE.INTRA.DIHEDRAL>
6.31433

>  <SCORE.INTRA.DIHEDRAL.0>
14.8538

>  <SCORE.INTRA.POLAR>
0

>  <SCORE.INTRA.POLAR.0>
0

>  <SCORE.INTRA.REPUL>
0

>  <SCORE.INTRA.REPUL.0>
0

>  <SCORE.INTRA.SOLV>
1.98343

>  <SCORE.INTRA.SOLV.lig_0>
-100.951

>  <SCORE.INTRA.VDW>
8.67454

>  <SCORE.INTRA.VDW.0>
-5.71388

>  <SCORE.INTRA.norm>
0.30532

>  <SCORE.RESTR>
2.62045

>  <SCORE.RESTR.CAVITY>
2.62045

>  <SCORE.RESTR.norm>
0.0623916

>  <SCORE.SYSTEM>
0

>  <SCORE.SYSTEM.CONST>
0

>  <SCORE.SYSTEM.DIHEDRAL>
0

>  <SCORE.SYSTEM.SOLV>
0

>  <SCORE.SYSTEM.norm>
0

>  <SCORE.heavy>
42

>  <SCORE.norm>
-0.00585333

>  <RMSD>
13.397

$$$$
3c44_lig
 OpenBabel11021811463D
libRbt.so/2013.1/901 2013/11/27
 42 45  0  0  0  0  0  0  0  0999 V2000
   38.0096   42.1550   -7.6287 C   0  0  2  0  0  0  0  0  0  0  0  0
   38.1273   43.2925   -6.7605 O   0  0  0  0  0  0  0  0  0  0  0  0
   40.9123   41.1622   -4.5480 C   0  0  2  0  0  0  0  0  0  0  0  0
   41.9836   40.5978   -3.7129 N   0  0  0  0  0  0  0  0  0  0  0  0
   36.7693   42.6344   -3.1684 C   0  0  1  0  0  0  0  0  0  0  0  0
   35.4866   40.4235   -0.1257 C   0  0  1  0  0  0  0  0  0  0  0  0
   36.7557   42.3137   -8.4950 C   0  0  2  0  0  0  0  0  0  0  0  0
   36.7753   43.5950   -9.2154 N   0  0  0  0  0  0  0  0  0  0  0  0
   41.4973   42.0583   -5.6434 C   0  0  0  0  0  0  0  0  0  0  0  0
   36.8358   42.8527   -1.6562 C   0  0  2  0  0  0  0  0  0  0  0  0
   37.7207   41.8999   -1.0638 O   0  0  0  0  0  0  0  0  0  0  0  0
   36.0961   39.0439   -0.3956 C   0  0  2  0  0  0  0  0  0  0  0  0
   35.1789   38.2968   -1.2673 N   0  0  0  0  0  0  0  0  0  0  0  0
   35.4817   42.2349   -7.6501 C   0  0  1  0  0  0  0  0  0  0  0  0
   34.3422   42.2284   -8.5154 O   0  0  0  0  0  0  0  0  0  0  0  0
   40.3472   42.4823   -6.5630 C   0  0  2  0  0  0  0  0  0  0  0  0
   40.8609   43.3959   -7.5947 N   0  0  0  0  0  0  0  0  0  0  0  0
   35.4001   42.4910   -1.2809 C   0  0  2  0  0  0  0  0  0  0  0  0
   35.1889   41.0727   -1.3744 O   0  0  0  0  0  0  0  0  0  0  0  0
   36.2899   38.2593    0.9086 C   0  0  1  0  0  0  0  0  0  0  0  0
   37.3466   38.8320    1.6833 O   0  0  0  0  0  0  0  0  0  0  0  0
   35.4937   40.9560   -6.8109 C   0  0  2  0  0  0  0  0  0  0  0  0
   34.3572   40.9401   -5.9431 O   0  0  0  0  0  0  0  0  0  0  0  0
   39.2031   43.1757   -5.8129 C   0  0  2  0  0  0  0  0  0  0  0  0
   34.6377   43.1931   -2.3935 C   0  0  2  0  0  0  0  0  0  0  0  0
   35.5087   43.2189   -3.5450 O   0  0  0  0  0  0  0  0  0  0  0  0
   35.0100   38.2608    1.7462 C   0  0  2  0  0  0  0  0  0  0  0  0
   34.0120   37.4938    1.0666 O   0  0  0  0  0  0  0  0  0  0  0  0
   36.7767   40.9007   -5.9803 C   0  0  2  0  0  0  0  0  0  0  0  0
   37.9301   40.9511   -6.8430 O   0  0  0  0  0  0  0  0  0  0  0  0
   38.7353   42.4369   -4.5608 C   0  0  2  0  0  0  0  0  0  0  0  0
   37.8830   43.2995   -3.7899 O   0  0  0  0  0  0  0  0  0  0  0  0
   34.2747   44.6109   -1.9469 C   0  0  0  0  0  0  0  0  0  0  0  0
   35.4706   45.3850   -1.8305 O   0  0  0  0  0  0  0  0  0  0  0  0
   34.5389   39.7055    1.9331 C   0  0  1  0  0  0  0  0  0  0  0  0
   34.2783   40.2701    0.6359 O   0  0  0  0  0  0  0  0  0  0  0  0
   36.7663   39.5855   -5.1969 C   0  0  0  0  0  0  0  0  0  0  0  0
   36.8755   38.4472   -6.1206 O   0  0  0  0  0  0  0  0  0  0  0  0
   39.9298   41.9861   -3.7118 C   0  0  1  0  0  0  0  0  0  0  0  0
   39.4742   41.2210   -2.5937 O   0  0  0  0  0  0  0  0  0  0  0  0
   33.2701   39.7955    2.7817 C   0  0  0  0  0  0  0  0  0  0  0  0
   33.4727   39.0552    4.0349 N   0  0  0  0  0  0  0  0  0  0  0  0
  1  2  1  1  0  0  0
  1  7  1  0  0  0  0
  1 30  1  0  0  0  0
  3  4  1  1  0  0  0
  3  9  1  0  0  0  0
  3 39  1  0  0  0  0
  5 10  1  0  0  0  0
  5 26  1  0  0  0  0
  5 32  1  6  0  0  0
  6 12  1  0  0  0  0
  6 36  1  0  0  0  0
  6 19  1  6  0  0  0
  7  8  1  1  0  0  0
  7 14  1  0  0  0  0
  9 16  1  0  0  0  0
 10 11  1  1  0  0  0
 10 18  1  0  0  0  0
 12 13  1  6  0  0  0
 12 20  1  0  0  0  0
 14 15  1  6  0  0  0
 14 22  1  0  0  0  0
 16 17  1  6  0  0  0
 16 24  1  0  0  0  0
 18 19  1  6  0  0  0
 18 25  1  0  0  0  0
 20 21  1  1  0  0  0
 20 27  1  0  0  0  0
 22 23  1  1  0  0  0
 22 29  1  0  0  0  0
 24  2  1  6  0  0  0
 24 31  1  0  0  0  0
 25 26  1  0  0  0  0
 25 33  1  1  0  0  0
 27 28  1  6  0  0  0
 27 35  1  0  0  0  0
 29 30  1  0  0  0  0
 29 37  1  6  0  0  0
 31 32  1  1  0  0  0
 31 39  1  0  0  0  0
 33 34  1  0  0  0  0
 35 36  1  0  0  0  0
 35 41  1  1  0  0  0
 37 38  1  0  0  0  0
 39 40  1  1  0  0  0
 41 42  1  0  0  0  0
M  END
>  <CHROM.1>
174.23113124,121.92290601,-145.11798987,89.86799859,37.57231544,67.70345728
66.62898921,142.12802042,51.98014681,36.76493177,41.33571312,-3.29826950
1.20051768,0.07820166,-1.21367577

>  <Name>
3c44_lig

>  <RI>
0

>  <Rbt.Current_Directory>
/home/itssahil/PROJECTS/Mol_Feturizer/New_Systems/rnas/3c44

>  <Rbt.Executable>
rbdock ($Id: //depot/dev/client3/rdock/2013.1/src/exe/rbdock.cxx#4 $)

>  <Rbt.Library>
libRbt.so (2013.1, Build901 2013/11/27)

>  <Rbt.Parameter_File>
/export/apps/rDock/src/rDock_2013.1_src/data/scripts/dock_solv.prm

>  <Rbt.Receptor>
prm/blind_docking_80.prm

>  <SCORE>
-0.132921

>  <SCORE.INTER>
-13.4277

>  <SCORE.INTER.CONST>
1

>  <SCORE.INTER.POLAR>
-1.18366

>  <SCORE.INTER.ROT>
9

>  <SCORE.INTER.SOLV>
25.6689

>  <SCORE.INTER.VDW>
-23.1625

>  <SCORE.INTER.norm>
-0.319706

>  <SCORE.INTRA>
8.52347

>  <SCORE.INTRA.DIHEDRAL>
8.35712

>  <SCORE.INTRA.DIHEDRAL.0>
14.8538

>  <SCORE.INTRA.POLAR>
0

>  <SCORE.INTRA.POLAR.0>
0

>  <SCORE.INTRA.REPUL>
0

>  <SCORE.INTRA.REPUL.0>
0

>  <SCORE.INTRA.SOLV>
-1.96286

>  <SCORE.INTRA.SOLV.lig_0>
-100.951

>  <SCORE.INTRA.VDW>
5.32634

>  <SCORE.INTRA.VDW.0>
-5.71388

>  <SCORE.INTRA.norm>
0.20294

>  <SCORE.RESTR>
4.77126

>  <SCORE.RESTR.CAVITY>
4.77126

>  <SCORE.RESTR.norm>
0.113601

>  <SCORE.SYSTEM>
0

>  <SCORE.SYSTEM.CONST>
0

>  <SCORE.SYSTEM.DIHEDRAL>
0

>  <SCORE.SYSTEM.SOLV>
0

>  <SCORE.SYSTEM.norm>
0

>  <SCORE.heavy>
42

>  <SCORE.norm>
-0.00316479

>  <RMSD>
13.409

$$$$
3c44_lig
 OpenBabel11021811463D
libRbt.so/2013.1/901 2013/11/27
 42 45  0  0  0  0  0  0  0  0999 V2000
   38.0954   43.4903   -8.2450 C   0  0  2  0  0  0  0  0  0  0  0  0
   38.6316   43.4168   -6.9150 O   0  0  0  0  0  0  0  0  0  0  0  0
   37.2523   39.5083   -6.8123 C   0  0  2  0  0  0  0  0  0  0  0  0
   36.8626   38.1080   -6.5862 N   0  0  0  0  0  0  0  0  0  0  0  0
   35.9601   42.0658   -3.8969 C   0  0  1  0  0  0  0  0  0  0  0  0
   35.3321   39.9196   -0.4057 C   0  0  1  0  0  0  0  0  0  0  0  0
   39.1867   43.9885   -9.1983 C   0  0  2  0  0  0  0  0  0  0  0  0
   40.3895   43.1489   -9.1023 N   0  0  0  0  0  0  0  0  0  0  0  0
   38.7734   39.6654   -6.7288 C   0  0  0  0  0  0  0  0  0  0  0  0
   37.1662   41.9066   -2.9700 C   0  0  2  0  0  0  0  0  0  0  0  0
   37.9323   40.7644   -3.3574 O   0  0  0  0  0  0  0  0  0  0  0  0
   36.4469   39.4908    0.5541 C   0  0  2  0  0  0  0  0  0  0  0  0
   37.2148   38.4121   -0.0830 N   0  0  0  0  0  0  0  0  0  0  0  0
   39.5660   45.4411   -8.8995 C   0  0  1  0  0  0  0  0  0  0  0  0
   40.4664   45.9099   -9.9080 O   0  0  0  0  0  0  0  0  0  0  0  0
   39.1162   41.1051   -7.1261 C   0  0  2  0  0  0  0  0  0  0  0  0
   40.5666   41.3125   -6.9986 N   0  0  0  0  0  0  0  0  0  0  0  0
   36.4444   41.5942   -1.6606 C   0  0  2  0  0  0  0  0  0  0  0  0
   35.8995   40.2647   -1.6816 O   0  0  0  0  0  0  0  0  0  0  0  0
   35.8693   38.9731    1.8778 C   0  0  1  0  0  0  0  0  0  0  0  0
   35.3131   40.0510    2.6353 O   0  0  0  0  0  0  0  0  0  0  0  0
   38.3099   46.3142   -8.8898 C   0  0  2  0  0  0  0  0  0  0  0  0
   38.6543   47.6471   -8.5026 O   0  0  0  0  0  0  0  0  0  0  0  0
   38.3895   42.1525   -6.2733 C   0  0  2  0  0  0  0  0  0  0  0  0
   35.3131   42.6085   -1.7190 C   0  0  2  0  0  0  0  0  0  0  0  0
   35.0254   42.8334   -3.1161 O   0  0  0  0  0  0  0  0  0  0  0  0
   34.7770   37.9312    1.6307 C   0  0  2  0  0  0  0  0  0  0  0  0
   35.3752   36.7582    1.0718 O   0  0  0  0  0  0  0  0  0  0  0  0
   37.2933   45.7377   -7.9032 C   0  0  2  0  0  0  0  0  0  0  0  0
   36.9647   44.3815   -8.2637 O   0  0  0  0  0  0  0  0  0  0  0  0
   36.8895   41.9077   -6.1226 C   0  0  2  0  0  0  0  0  0  0  0  0
   36.3700   42.7593   -5.0885 O   0  0  0  0  0  0  0  0  0  0  0  0
   35.7534   43.9035   -1.0329 C   0  0  0  0  0  0  0  0  0  0  0  0
   34.6471   44.8074   -0.9866 O   0  0  0  0  0  0  0  0  0  0  0  0
   33.7414   38.5149    0.6660 C   0  0  1  0  0  0  0  0  0  0  0  0
   34.4025   38.8370   -0.5703 O   0  0  0  0  0  0  0  0  0  0  0  0
   36.0394   46.6137   -7.9636 C   0  0  0  0  0  0  0  0  0  0  0  0
   36.3594   47.9828   -7.5346 O   0  0  0  0  0  0  0  0  0  0  0  0
   36.6050   40.4395   -5.7842 C   0  0  1  0  0  0  0  0  0  0  0  0
   35.1945   40.2133   -5.7358 O   0  0  0  0  0  0  0  0  0  0  0  0
   32.5991   37.5384    0.3827 C   0  0  0  0  0  0  0  0  0  0  0  0
   31.9346   37.1915    1.6467 N   0  0  0  0  0  0  0  0  0  0  0  0
  1  2  1  1  0  0  0
  1  7  1  0  0  0  0
  1 30  1  0  0  0  0
  3  4  1  1  0  0  0
  3  9  1  0  0  0  0
  3 39  1  0  0  0  0
  5 10  1  0  0  0  0
  5 26  1  0  0  0  0
  5 32  1  6  0  0  0
  6 12  1  0  0  0  0
  6 36  1  0  0  0  0
  6 19  1  6  0  0  0
  7  8  1  1  0  0  0
  7 14  1  0  0  0  0
  9 16  1  0  0  0  0
 10 11  1  6  0  0  0
 10 18  1  0  0  0  0
 12 13  1  6  0  0  0
 12 20  1  0  0  0  0
 14 15  1  6  0  0  0
 14 22  1  0  0  0  0
 16 17  1  1  0  0  0
 16 24  1  0  0  0  0
 18 19  1  6  0  0  0
 18 25  1  0  0  0  0
 20 21  1  6  0  0  0
 20 27  1  0  0  0  0
 22 23  1  1  0  0  0
 22 29  1  0  0  0  0
 24  2  1  6  0  0  0
 24 31  1  0  0  0  0
 25 26  1  0  0  0  0
 25 33  1  6  0  0  0
 27 28  1  6  0  0  0
 27 35  1  0  0  0  0
 29 30  1  0  0  0  0
 29 37  1  6  0  0  0
 31 32  1  1  0  0  0
 31 39  1  0  0  0  0
 33 34  1  0  0  0  0
 35 36  1  0  0  0  0
 35 41  1  6  0  0  0
 37 38  1  0  0  0  0
 39 40  1  6  0  0  0
 41 42  1  0  0  0  0
M  END
>  <CHROM.1>
-129.66208009,86.93144391,-80.40897044,174.43526461,62.30312469,-174.89544266
-62.62259166,-110.57935913,58.95598429,36.72436821,41.84021548,-4.17603110
-0.87067490,-1.03780655,2.79027119

>  <Name>
3c44_lig

>  <RI>
0

>  <Rbt.Current_Directory>
/home/itssahil/PROJECTS/Mol_Feturizer/New_Systems/rnas/3c44

>  <Rbt.Executable>
rbdock ($Id: //depot/dev/client3/rdock/2013.1/src/exe/rbdock.cxx#4 $)

>  <Rbt.Library>
libRbt.so (2013.1, Build901 2013/11/27)

>  <Rbt.Parameter_File>
/export/apps/rDock/src/rDock_2013.1_src/data/scripts/dock_solv.prm

>  <Rbt.Receptor>
prm/blind_docking_80.prm

>  <SCORE>
4.81248

>  <SCORE.INTER>
-6.99216

>  <SCORE.INTER.CONST>
1

>  <SCORE.INTER.POLAR>
-1.60767

>  <SCORE.INTER.ROT>
9

>  <SCORE.INTER.SOLV>
24.1124

>  <SCORE.INTER.VDW>
-16.94

>  <SCORE.INTER.norm>
-0.16648

>  <SCORE.INTRA>
10.0372

>  <SCORE.INTRA.DIHEDRAL>
4.23117

>  <SCORE.INTRA.DIHEDRAL.0>
14.8538

>  <SCORE.INTRA.POLAR>
0

>  <SCORE.INTRA.POLAR.0>
0

>  <SCORE.INTRA.REPUL>
0

>  <SCORE.INTRA.REPUL.0>
0

>  <SCORE.INTRA.SOLV>
-0.190698

>  <SCORE.INTRA.SOLV.lig_0>
-100.951

>  <SCORE.INTRA.VDW>
8.01693

>  <SCORE.INTRA.VDW.0>
-5.71388

>  <SCORE.INTRA.norm>
0.23898

>  <SCORE.RESTR>
1.76748

>  <SCORE.RESTR.CAVITY>
1.76748

>  <SCORE.RESTR.norm>
0.0420829

>  <SCORE.SYSTEM>
0

>  <SCORE.SYSTEM.CONST>
0

>  <SCORE.SYSTEM.DIHEDRAL>
0

>  <SCORE.SYSTEM.SOLV>
0

>  <SCORE.SYSTEM.norm>
0

>  <SCORE.heavy>
42

>  <SCORE.norm>
0.114583

>  <RMSD>
13.412

$$$$
3c44_lig
 OpenBabel11021811463D
libRbt.so/2013.1/901 2013/11/27
 42 45  0  0  0  0  0  0  0  0999 V2000
   37.9964   44.5577   -6.4939 C   0  0  2  0  0  0  0  0  0  0  0  0
   37.0737   43.6400   -7.1008 O   0  0  0  0  0  0  0  0  0  0  0  0
   36.3377   39.5609   -7.1914 C   0  0  2  0  0  0  0  0  0  0  0  0
   36.2868   38.0907   -7.1863 N   0  0  0  0  0  0  0  0  0  0  0  0
   36.1434   41.9712   -3.4397 C   0  0  1  0  0  0  0  0  0  0  0  0
   35.4525   40.4664    0.1941 C   0  0  1  0  0  0  0  0  0  0  0  0
   37.9350   45.8955   -7.2384 C   0  0  2  0  0  0  0  0  0  0  0  0
   36.5568   46.4048   -7.2879 N   0  0  0  0  0  0  0  0  0  0  0  0
   37.3599   40.0619   -8.2157 C   0  0  0  0  0  0  0  0  0  0  0  0
   36.8841   42.1442   -2.1128 C   0  0  2  0  0  0  0  0  0  0  0  0
   37.5203   40.9186   -1.7455 O   0  0  0  0  0  0  0  0  0  0  0  0
   35.6965   38.9935   -0.1508 C   0  0  2  0  0  0  0  0  0  0  0  0
   34.4579   38.4406   -0.7160 N   0  0  0  0  0  0  0  0  0  0  0  0
   38.4704   45.7631   -8.6663 C   0  0  1  0  0  0  0  0  0  0  0  0
   38.5414   47.0607   -9.2651 O   0  0  0  0  0  0  0  0  0  0  0  0
   37.2480   41.5888   -8.2780 C   0  0  2  0  0  0  0  0  0  0  0  0
   38.2590   42.1131   -9.2086 N   0  0  0  0  0  0  0  0  0  0  0  0
   35.6949   42.3794   -1.1836 C   0  0  2  0  0  0  0  0  0  0  0  0
   34.9654   41.1603   -0.9679 O   0  0  0  0  0  0  0  0  0  0  0  0
   36.0744   38.1874    1.0987 C   0  0  1  0  0  0  0  0  0  0  0  0
   37.3865   38.5417    1.5435 O   0  0  0  0  0  0  0  0  0  0  0  0
   39.8648   45.1345   -8.6416 C   0  0  2  0  0  0  0  0  0  0  0  0
   40.3150   44.9115   -9.9805 O   0  0  0  0  0  0  0  0  0  0  0  0
   37.4363   42.2610   -6.9123 C   0  0  2  0  0  0  0  0  0  0  0  0
   34.8625   43.3267   -2.0332 C   0  0  2  0  0  0  0  0  0  0  0  0
   35.1438   43.0069   -3.4130 O   0  0  0  0  0  0  0  0  0  0  0  0
   35.0844   38.4413    2.2368 C   0  0  2  0  0  0  0  0  0  0  0  0
   33.8162   37.8850    1.8788 O   0  0  0  0  0  0  0  0  0  0  0  0
   39.8138   43.8050   -7.8872 C   0  0  2  0  0  0  0  0  0  0  0  0
   39.3280   44.0125   -6.5463 O   0  0  0  0  0  0  0  0  0  0  0  0
   36.6103   41.6394   -5.7880 C   0  0  2  0  0  0  0  0  0  0  0  0
   37.0729   42.1422   -4.5239 O   0  0  0  0  0  0  0  0  0  0  0  0
   35.2500   44.7721   -1.7138 C   0  0  0  0  0  0  0  0  0  0  0  0
   34.8916   45.0642   -0.3613 O   0  0  0  0  0  0  0  0  0  0  0  0
   34.9618   39.9506    2.4625 C   0  0  1  0  0  0  0  0  0  0  0  0
   34.4809   40.5542    1.2485 O   0  0  0  0  0  0  0  0  0  0  0  0
   41.2356   43.2391   -7.8470 C   0  0  0  0  0  0  0  0  0  0  0  0
   41.5171   42.4938   -9.0825 O   0  0  0  0  0  0  0  0  0  0  0  0
   36.7139   40.1098   -5.8128 C   0  0  1  0  0  0  0  0  0  0  0  0
   35.8647   39.5459   -4.8109 O   0  0  0  0  0  0  0  0  0  0  0  0
   34.0019   40.2892    3.6037 C   0  0  0  0  0  0  0  0  0  0  0  0
   34.1178   41.7184    3.9253 N   0  0  0  0  0  0  0  0  0  0  0  0
  1  2  1  6  0  0  0
  1  7  1  0  0  0  0
  1 30  1  0  0  0  0
  3  4  1  1  0  0  0
  3  9  1  0  0  0  0
  3 39  1  0  0  0  0
  5 10  1  0  0  0  0
  5 26  1  0  0  0  0
  5 32  1  6  0  0  0
  6 12  1  0  0  0  0
  6 36  1  0  0  0  0
  6 19  1  6  0  0  0
  7  8  1  6  0  0  0
  7 14  1  0  0  0  0
  9 16  1  0  0  0  0
 10 11  1  1  0  0  0
 10 18  1  0  0  0  0
 12 13  1  1  0  0  0
 12 20  1  0  0  0  0
 14 15  1  1  0  0  0
 14 22  1  0  0  0  0
 16 17  1  6  0  0  0
 16 24  1  0  0  0  0
 18 19  1  6  0  0  0
 18 25  1  0  0  0  0
 20 21  1  1  0  0  0
 20 27  1  0  0  0  0
 22 23  1  6  0  0  0
 22 29  1  0  0  0  0
 24  2  1  6  0  0  0
 24 31  1  0  0  0  0
 25 26  1  0  0  0  0
 25 33  1  1  0  0  0
 27 28  1  6  0  0  0
 27 35  1  0  0  0  0
 29 30  1  0  0  0  0
 29 37  1  1  0  0  0
 31 32  1  1  0  0  0
 31 39  1  0  0  0  0
 33 34  1  0  0  0  0
 35 36  1  0  0  0  0
 35 41  1  1  0  0  0
 37 38  1  0  0  0  0
 39 40  1  1  0  0  0
 41 42  1  0  0  0  0
M  END
>  <CHROM.1>
154.21809717,163.13379416,-131.31047539,91.70108687,-135.24747870,-65.24523659
-84.59710322,161.73780815,169.77708880,36.78842230,41.97166137,-3.88773898
0.31695366,1.19543590,0.05235550

>  <Name>
3c44_lig

>  <RI>
0

>  <Rbt.Current_Directory>
/home/itssahil/PROJECTS/Mol_Feturizer/New_Systems/rnas/3c44

>  <Rbt.Executable>
rbdock ($Id: //depot/dev/client3/rdock/2013.1/src/exe/rbdock.cxx#4 $)

>  <Rbt.Library>
libRbt.so (2013.1, Build901 2013/11/27)

>  <Rbt.Parameter_File>
/export/apps/rDock/src/rDock_2013.1_src/data/scripts/dock_solv.prm

>  <Rbt.Receptor>
prm/blind_docking_80.prm

>  <SCORE>
-2.32126

>  <SCORE.INTER>
-14.2633

>  <SCORE.INTER.CONST>
1

>  <SCORE.INTER.POLAR>
-0.566993

>  <SCORE.INTER.ROT>
9

>  <SCORE.INTER.SOLV>
28.5555

>  <SCORE.INTER.VDW>
-26.7374

>  <SCORE.INTER.norm>
-0.339603

>  <SCORE.INTRA>
7.15845

>  <SCORE.INTRA.DIHEDRAL>
9.80833

>  <SCORE.INTRA.DIHEDRAL.0>
14.8538

>  <SCORE.INTRA.POLAR>
0

>  <SCORE.INTRA.POLAR.0>
0

>  <SCORE.INTRA.REPUL>
0

>  <SCORE.INTRA.REPUL.0>
0

>  <SCORE.INTRA.SOLV>
-0.82202

>  <SCORE.INTRA.SOLV.lig_0>
-100.951

>  <SCORE.INTRA.VDW>
2.6653

>  <SCORE.INTRA.VDW.0>
-5.71388

>  <SCORE.INTRA.norm>
0.170439

>  <SCORE.RESTR>
4.78363

>  <SCORE.RESTR.CAVITY>
4.78363

>  <SCORE.RESTR.norm>
0.113896

>  <SCORE.SYSTEM>
0

>  <SCORE.SYSTEM.CONST>
0

>  <SCORE.SYSTEM.DIHEDRAL>
0

>  <SCORE.SYSTEM.SOLV>
0

>  <SCORE.SYSTEM.norm>
0

>  <SCORE.heavy>
42

>  <SCORE.norm>
-0.0552681

>  <RMSD>
13.430

$$$$
3c44_lig
 OpenBabel11021811463D
libRbt.so/2013.1/901 2013/11/27
 42 45  0  0  0  0  0  0  0  0999 V2000
   37.5446   40.8331   -7.1968 C   0  0  2  0  0  0  0  0  0  0  0  0
   37.3587   42.0433   -6.4468 O   0  0  0  0  0  0  0  0  0  0  0  0
   40.9215   41.4100   -4.4232 C   0  0  2  0  0  0  0  0  0  0  0  0
   42.2176   41.3964   -3.7276 N   0  0  0  0  0  0  0  0  0  0  0  0
   36.5738   42.2202   -2.8295 C   0  0  1  0  0  0  0  0  0  0  0  0
   34.7288   39.9453    0.2690 C   0  0  1  0  0  0  0  0  0  0  0  0
   36.1738   40.2681   -7.5840 C   0  0  2  0  0  0  0  0  0  0  0  0
   35.3739   41.2756   -8.2954 N   0  0  0  0  0  0  0  0  0  0  0  0
   41.0646   42.0236   -5.8190 C   0  0  0  0  0  0  0  0  0  0  0  0
   36.9674   42.2810   -1.3529 C   0  0  2  0  0  0  0  0  0  0  0  0
   37.9231   41.2599   -1.0599 O   0  0  0  0  0  0  0  0  0  0  0  0
   35.7995   39.5846    1.3041 C   0  0  2  0  0  0  0  0  0  0  0  0
   36.7853   38.7051    0.6609 N   0  0  0  0  0  0  0  0  0  0  0  0
   35.3991   39.7938   -6.3520 C   0  0  1  0  0  0  0  0  0  0  0  0
   34.2018   39.1335   -6.7737 O   0  0  0  0  0  0  0  0  0  0  0  0
   39.7214   41.8633   -6.5390 C   0  0  2  0  0  0  0  0  0  0  0  0
   39.8011   42.4969   -7.8638 N   0  0  0  0  0  0  0  0  0  0  0  0
   35.6320   41.9029   -0.7152 C   0  0  2  0  0  0  0  0  0  0  0  0
   35.3551   40.5048   -0.8988 O   0  0  0  0  0  0  0  0  0  0  0  0
   35.1857   38.8487    2.5023 C   0  0  1  0  0  0  0  0  0  0  0  0
   34.3965   39.7457    3.2881 O   0  0  0  0  0  0  0  0  0  0  0  0
   36.2589   38.8236   -5.5398 C   0  0  2  0  0  0  0  0  0  0  0  0
   35.5754   38.4690   -4.3348 O   0  0  0  0  0  0  0  0  0  0  0  0
   38.5484   42.4786   -5.7657 C   0  0  2  0  0  0  0  0  0  0  0  0
   34.6765   42.7263   -1.5644 C   0  0  2  0  0  0  0  0  0  0  0  0
   35.2838   42.8581   -2.8680 O   0  0  0  0  0  0  0  0  0  0  0  0
   34.3000   37.6902    2.0408 C   0  0  2  0  0  0  0  0  0  0  0  0
   35.1263   36.6846    1.4475 O   0  0  0  0  0  0  0  0  0  0  0  0
   37.5946   39.4860   -5.1984 C   0  0  2  0  0  0  0  0  0  0  0  0
   38.2773   39.8794   -6.4052 O   0  0  0  0  0  0  0  0  0  0  0  0
   38.4946   42.0858   -4.2908 C   0  0  2  0  0  0  0  0  0  0  0  0
   37.5533   42.9298   -3.6078 O   0  0  0  0  0  0  0  0  0  0  0  0
   34.4674   44.0957   -0.9144 C   0  0  0  0  0  0  0  0  0  0  0  0
   33.8907   44.9851   -1.8732 O   0  0  0  0  0  0  0  0  0  0  0  0
   33.2832   38.2154    1.0238 C   0  0  1  0  0  0  0  0  0  0  0  0
   34.0014   38.7618   -0.0965 O   0  0  0  0  0  0  0  0  0  0  0  0
   38.4366   38.4641   -4.4302 C   0  0  0  0  0  0  0  0  0  0  0  0
   39.8491   38.8715   -4.4311 O   0  0  0  0  0  0  0  0  0  0  0  0
   39.8773   42.2094   -3.6397 C   0  0  1  0  0  0  0  0  0  0  0  0
   39.8230   41.7530   -2.2863 O   0  0  0  0  0  0  0  0  0  0  0  0
   32.3416   37.1177    0.5269 C   0  0  0  0  0  0  0  0  0  0  0  0
   31.4095   36.7558    1.6039 N   0  0  0  0  0  0  0  0  0  0  0  0
  1  2  1  1  0  0  0
  1  7  1  0  0  0  0
  1 30  1  0  0  0  0
  3  4  1  1  0  0  0
  3  9  1  0  0  0  0
  3 39  1  0  0  0  0
  5 10  1  0  0  0  0
  5 26  1  0  0  0  0
  5 32  1  6  0  0  0
  6 12  1  0  0  0  0
  6 36  1  0  0  0  0
  6 19  1  6  0  0  0
  7  8  1  1  0  0  0
  7 14  1  0  0  0  0
  9 16  1  0  0  0  0
 10 11  1  6  0  0  0
 10 18  1  0  0  0  0
 12 13  1  6  0  0  0
 12 20  1  0  0  0  0
 14 15  1  6  0  0  0
 14 22  1  0  0  0  0
 16 17  1  6  0  0  0
 16 24  1  0  0  0  0
 18 19  1  6  0  0  0
 18 25  1  0  0  0  0
 20 21  1  6  0  0  0
 20 27  1  0  0  0  0
 22 23  1  1  0  0  0
 22 29  1  0  0  0  0
 24  2  1  6  0  0  0
 24 31  1  0  0  0  0
 25 26  1  0  0  0  0
 25 33  1  1  0  0  0
 27 28  1  6  0  0  0
 27 35  1  0  0  0  0
 29 30  1  0  0  0  0
 29 37  1  6  0  0  0
 31 32  1  1  0  0  0
 31 39  1  0  0  0  0
 33 34  1  0  0  0  0
 35 36  1  0  0  0  0
 35 41  1  6  0  0  0
 37 38  1  0  0  0  0
 39 40  1  1  0  0  0
 41 42  1  0  0  0  0
M  END
>  <CHROM.1>
165.90213545,101.95740581,-82.66540412,142.08853342,23.86889540,163.92631923
162.77692536,128.64498636,71.67945405,36.60690747,40.54168130,-2.85304633
0.87398286,-0.64622557,-1.70488236

>  <Name>
3c44_lig

>  <RI>
0

>  <Rbt.Current_Directory>
/home/itssahil/PROJECTS/Mol_Feturizer/New_Systems/rnas/3c44

>  <Rbt.Executable>
rbdock ($Id: //depot/dev/client3/rdock/2013.1/src/exe/rbdock.cxx#4 $)

>  <Rbt.Library>
libRbt.so (2013.1, Build901 2013/11/27)

>  <Rbt.Parameter_File>
/export/apps/rDock/src/rDock_2013.1_src/data/scripts/dock_solv.prm

>  <Rbt.Receptor>
prm/blind_docking_80.prm

>  <SCORE>
18.4897

>  <SCORE.INTER>
-2.71634

>  <SCORE.INTER.CONST>
1

>  <SCORE.INTER.POLAR>
0

>  <SCORE.INTER.ROT>
9

>  <SCORE.INTER.SOLV>
23.624

>  <SCORE.INTER.VDW>
-19.2856

>  <SCORE.INTER.norm>
-0.0646748

>  <SCORE.INTRA>
18.2742

>  <SCORE.INTRA.DIHEDRAL>
12.8318

>  <SCORE.INTRA.DIHEDRAL.0>
14.8538

>  <SCORE.INTRA.POLAR>
0

>  <SCORE.INTRA.POLAR.0>
0

>  <SCORE.INTRA.REPUL>
0.135029

>  <SCORE.INTRA.REPUL.0>
0

>  <SCORE.INTRA.SOLV>
-0.656234

>  <SCORE.INTRA.SOLV.lig_0>
-100.951

>  <SCORE.INTRA.VDW>
11.5113

>  <SCORE.INTRA.VDW.0>
-5.71388

>  <SCORE.INTRA.norm>
0.435101

>  <SCORE.RESTR>
2.93181

>  <SCORE.RESTR.CAVITY>
2.93181

>  <SCORE.RESTR.norm>
0.0698051

>  <SCORE.SYSTEM>
0

>  <SCORE.SYSTEM.CONST>
0

>  <SCORE.SYSTEM.DIHEDRAL>
0

>  <SCORE.SYSTEM.SOLV>
0

>  <SCORE.SYSTEM.norm>
0

>  <SCORE.heavy>
42

>  <SCORE.norm>
0.440231

>  <RMSD>
13.458

$$$$
3c44_lig
 OpenBabel11021811463D
libRbt.so/2013.1/901 2013/11/27
 42 45  0  0  0  0  0  0  0  0999 V2000
   34.0835   43.6616   -0.9712 C   0  0  2  0  0  0  0  0  0  0  0  0
   35.2893   42.9071   -0.7750 O   0  0  0  0  0  0  0  0  0  0  0  0
   36.3885   38.9269   -0.4022 C   0  0  2  0  0  0  0  0  0  0  0  0
   36.5864   37.4700   -0.3549 N   0  0  0  0  0  0  0  0  0  0  0  0
   37.2591   41.5358   -4.0061 C   0  0  1  0  0  0  0  0  0  0  0  0
   38.8438   41.0375   -6.0070 C   0  0  1  0  0  0  0  0  0  0  0  0
   34.2564   44.5740   -2.1901 C   0  0  2  0  0  0  0  0  0  0  0  0
   34.6552   43.7979   -3.3731 N   0  0  0  0  0  0  0  0  0  0  0  0
   35.1080   39.3218    0.3391 C   0  0  0  0  0  0  0  0  0  0  0  0
   37.6163   43.0169   -4.1392 C   0  0  2  0  0  0  0  0  0  0  0  0
   36.8834   43.6008   -5.2180 O   0  0  0  0  0  0  0  0  0  0  0  0
   39.8646   40.3118   -6.8897 C   0  0  2  0  0  0  0  0  0  0  0  0
   39.9437   41.0151   -8.1774 N   0  0  0  0  0  0  0  0  0  0  0  0
   35.3030   45.6599   -1.9287 C   0  0  1  0  0  0  0  0  0  0  0  0
   35.3151   46.5769   -3.0270 O   0  0  0  0  0  0  0  0  0  0  0  0
   35.0482   40.8524    0.3841 C   0  0  2  0  0  0  0  0  0  0  0  0
   33.7984   41.2714    1.0364 N   0  0  0  0  0  0  0  0  0  0  0  0
   39.0819   42.8918   -4.5506 C   0  0  2  0  0  0  0  0  0  0  0  0
   39.1949   42.4287   -5.9062 O   0  0  0  0  0  0  0  0  0  0  0  0
   39.4432   38.8585   -7.1436 C   0  0  1  0  0  0  0  0  0  0  0  0
   39.5776   38.0839   -5.9491 O   0  0  0  0  0  0  0  0  0  0  0  0
   34.9618   46.4103   -0.6400 C   0  0  2  0  0  0  0  0  0  0  0  0
   35.9990   47.3483   -0.3412 O   0  0  0  0  0  0  0  0  0  0  0  0
   35.1218   41.4973   -1.0055 C   0  0  2  0  0  0  0  0  0  0  0  0
   39.5443   41.7990   -3.5997 C   0  0  2  0  0  0  0  0  0  0  0  0
   38.3950   40.9678   -3.3282 O   0  0  0  0  0  0  0  0  0  0  0  0
   37.9911   38.7822   -7.6181 C   0  0  2  0  0  0  0  0  0  0  0  0
   37.8995   39.3653   -8.9211 O   0  0  0  0  0  0  0  0  0  0  0  0
   34.8216   45.4132    0.5113 C   0  0  2  0  0  0  0  0  0  0  0  0
   33.8021   44.4414    0.2060 O   0  0  0  0  0  0  0  0  0  0  0  0
   36.2484   40.9617   -1.8868 C   0  0  2  0  0  0  0  0  0  0  0  0
   36.0499   41.4100   -3.2375 O   0  0  0  0  0  0  0  0  0  0  0  0
   40.0793   42.4342   -2.3145 C   0  0  0  0  0  0  0  0  0  0  0  0
   40.5547   41.4031   -1.4463 O   0  0  0  0  0  0  0  0  0  0  0  0
   37.1035   39.5417   -6.6287 C   0  0  1  0  0  0  0  0  0  0  0  0
   37.5365   40.9130   -6.5893 O   0  0  0  0  0  0  0  0  0  0  0  0
   34.4339   46.2024    1.7644 C   0  0  0  0  0  0  0  0  0  0  0  0
   33.1635   46.9082    1.5431 O   0  0  0  0  0  0  0  0  0  0  0  0
   36.2959   39.4297   -1.8451 C   0  0  1  0  0  0  0  0  0  0  0  0
   37.4102   38.9542   -2.6036 O   0  0  0  0  0  0  0  0  0  0  0  0
   35.6265   39.4948   -7.0221 C   0  0  0  0  0  0  0  0  0  0  0  0
   34.8221   40.1072   -5.9555 N   0  0  0  0  0  0  0  0  0  0  0  0
  1  2  1  1  0  0  0
  1  7  1  0  0  0  0
  1 30  1  0  0  0  0
  3  4  1  6  0  0  0
  3  9  1  0  0  0  0
  3 39  1  0  0  0  0
  5 10  1  0  0  0  0
  5 26  1  0  0  0  0
  5 32  1  1  0  0  0
  6 12  1  0  0  0  0
  6 36  1  0  0  0  0
  6 19  1  6  0  0  0
  7  8  1  6  0  0  0
  7 14  1  0  0  0  0
  9 16  1  0  0  0  0
 10 11  1  6  0  0  0
 10 18  1  0  0  0  0
 12 13  1  6  0  0  0
 12 20  1  0  0  0  0
 14 15  1  6  0  0  0
 14 22  1  0  0  0  0
 16 17  1  6  0  0  0
 16 24  1  0  0  0  0
 18 19  1  6  0  0  0
 18 25  1  0  0  0  0
 20 21  1  1  0  0  0
 20 27  1  0  0  0  0
 22 23  1  1  0  0  0
 22 29  1  0  0  0  0
 24  2  1  1  0  0  0
 24 31  1  0  0  0  0
 25 26  1  0  0  0  0
 25 33  1  1  0  0  0
 27 28  1  6  0  0  0
 27 35  1  0  0  0  0
 29 30  1  0  0  0  0
 29 37  1  1  0  0  0
 31 32  1  6  0  0  0
 31 39  1  0  0  0  0
 33 34  1  0  0  0  0
 35 36  1  0  0  0  0
 35 41  1  6  0  0  0
 37 38  1  0  0  0  0
 39 40  1  6  0  0  0
 41 42  1  0  0  0  0
M  END
>  <CHROM.1>
-113.06135867,-104.55695339,-135.58205395,-72.40098502,-102.86466116,-177.98505011
59.72483556,152.33026032,173.60257720,36.70761784,41.97245693,-3.10458078
2.82030910,1.09689403,-0.29549091

>  <Name>
3c44_lig

>  <RI>
224

>  <Rbt.Current_Directory>
/home/itssahil/PROJECTS/Mol_Feturizer/New_Systems/rnas/3c44

>  <Rbt.Executable>
rbdock ($Id: //depot/dev/client3/rdock/2013.1/src/exe/rbdock.cxx#4 $)

>  <Rbt.Library>
libRbt.so (2013.1, Build901 2013/11/27)

>  <Rbt.Parameter_File>
/export/apps/rDock/src/rDock_2013.1_src/data/scripts/dock_solv.prm

>  <Rbt.Receptor>
prm/blind_docking_60.prm

>  <SCORE>
21.2373

>  <SCORE.INTER>
-5.44624

>  <SCORE.INTER.CONST>
1

>  <SCORE.INTER.POLAR>
-0.06575

>  <SCORE.INTER.ROT>
9

>  <SCORE.INTER.SOLV>
21.3612

>  <SCORE.INTER.VDW>
-20.1321

>  <SCORE.INTER.norm>
-0.129672

>  <SCORE.INTRA>
18.3909

>  <SCORE.INTRA.DIHEDRAL>
14.3266

>  <SCORE.INTRA.DIHEDRAL.0>
14.8538

>  <SCORE.INTRA.POLAR>
0

>  <SCORE.INTRA.POLAR.0>
0

>  <SCORE.INTRA.REPUL>
0.0823709

>  <SCORE.INTRA.REPUL.0>
0

>  <SCORE.INTRA.SOLV>
3.07311

>  <SCORE.INTRA.SOLV.lig_0>
-100.951

>  <SCORE.INTRA.VDW>
9.27921

>  <SCORE.INTRA.VDW.0>
-5.71388

>  <SCORE.INTRA.norm>
0.437879

>  <SCORE.RESTR>
8.29261

>  <SCORE.RESTR.CAVITY>
8.29261

>  <SCORE.RESTR.norm>
0.197443

>  <SCORE.SYSTEM>
0

>  <SCORE.SYSTEM.CONST>
0

>  <SCORE.SYSTEM.DIHEDRAL>
0

>  <SCORE.SYSTEM.SOLV>
0

>  <SCORE.SYSTEM.norm>
0

>  <SCORE.heavy>
42

>  <SCORE.norm>
0.50565

>  <RMSD>
13.469

$$$$
3c44_lig
 OpenBabel11021811463D
libRbt.so/2013.1/901 2013/11/27
 42 45  0  0  0  0  0  0  0  0999 V2000
   38.1286   44.0395   -7.6072 C   0  0  2  0  0  0  0  0  0  0  0  0
   39.4467   43.9192   -7.0505 O   0  0  0  0  0  0  0  0  0  0  0  0
   39.1053   39.8258   -7.6133 C   0  0  2  0  0  0  0  0  0  0  0  0
   39.1796   38.3609   -7.7253 N   0  0  0  0  0  0  0  0  0  0  0  0
   37.8687   41.7178   -3.8327 C   0  0  1  0  0  0  0  0  0  0  0  0
   35.8653   40.6543   -0.2458 C   0  0  1  0  0  0  0  0  0  0  0  0
   38.2174   44.7700   -8.9513 C   0  0  2  0  0  0  0  0  0  0  0  0
   39.1687   44.1001   -9.8498 N   0  0  0  0  0  0  0  0  0  0  0  0
   40.3034   40.4814   -8.3060 C   0  0  0  0  0  0  0  0  0  0  0  0
   37.9267   42.4391   -2.4853 C   0  0  2  0  0  0  0  0  0  0  0  0
   38.8746   41.7988   -1.6291 O   0  0  0  0  0  0  0  0  0  0  0  0
   36.0003   39.2095    0.2464 C   0  0  2  0  0  0  0  0  0  0  0  0
   35.3665   38.3246   -0.7407 N   0  0  0  0  0  0  0  0  0  0  0  0
   38.6469   46.2274   -8.7655 C   0  0  1  0  0  0  0  0  0  0  0  0
   38.5621   46.9073  -10.0217 O   0  0  0  0  0  0  0  0  0  0  0  0
   40.0812   41.9975   -8.2867 C   0  0  2  0  0  0  0  0  0  0  0  0
   41.2433   42.6671   -8.8901 N   0  0  0  0  0  0  0  0  0  0  0  0
   36.5194   42.1396   -1.9727 C   0  0  2  0  0  0  0  0  0  0  0  0
   36.4016   40.7635   -1.5760 O   0  0  0  0  0  0  0  0  0  0  0  0
   35.3059   39.0188    1.6012 C   0  0  1  0  0  0  0  0  0  0  0  0
   36.0362   39.6850    2.6346 O   0  0  0  0  0  0  0  0  0  0  0  0
   37.7308   46.9132   -7.7503 C   0  0  2  0  0  0  0  0  0  0  0  0
   38.2017   48.2396   -7.4975 O   0  0  0  0  0  0  0  0  0  0  0  0
   39.8670   42.5550   -6.8739 C   0  0  2  0  0  0  0  0  0  0  0  0
   35.7080   42.3757   -3.2368 C   0  0  2  0  0  0  0  0  0  0  0  0
   36.5708   42.0626   -4.3516 O   0  0  0  0  0  0  0  0  0  0  0  0
   33.8806   39.5731    1.5711 C   0  0  2  0  0  0  0  0  0  0  0  0
   33.0881   38.7632    0.6980 O   0  0  0  0  0  0  0  0  0  0  0  0
   37.7213   46.1129   -6.4469 C   0  0  2  0  0  0  0  0  0  0  0  0
   37.2812   44.7632   -6.6955 O   0  0  0  0  0  0  0  0  0  0  0  0
   38.8436   41.7831   -6.0435 C   0  0  2  0  0  0  0  0  0  0  0  0
   38.9336   42.1991   -4.6710 O   0  0  0  0  0  0  0  0  0  0  0  0
   35.2542   43.8363   -3.2861 C   0  0  0  0  0  0  0  0  0  0  0  0
   34.4755   44.1233   -2.1224 O   0  0  0  0  0  0  0  0  0  0  0  0
   33.9193   41.0194    1.0704 C   0  0  1  0  0  0  0  0  0  0  0  0
   34.4779   41.0268   -0.2552 O   0  0  0  0  0  0  0  0  0  0  0  0
   36.7575   46.8083   -5.4822 C   0  0  0  0  0  0  0  0  0  0  0  0
   35.5472   47.2357   -6.1988 O   0  0  0  0  0  0  0  0  0  0  0  0
   39.0796   40.2718   -6.1492 C   0  0  1  0  0  0  0  0  0  0  0  0
   38.0593   39.5668   -5.4386 O   0  0  0  0  0  0  0  0  0  0  0  0
   32.5294   41.6557    1.0310 C   0  0  0  0  0  0  0  0  0  0  0  0
   32.6590   43.0805    0.6951 N   0  0  0  0  0  0  0  0  0  0  0  0
  1  2  1  1  0  0  0
  1  7  1  0  0  0  0
  1 30  1  0  0  0  0
  3  4  1  1  0  0  0
  3  9  1  0  0  0  0
  3 39  1  0  0  0  0
  5 10  1  0  0  0  0
  5 26  1  0  0  0  0
  5 32  1  6  0  0  0
  6 12  1  0  0  0  0
  6 36  1  0  0  0  0
  6 19  1  6  0  0  0
  7  8  1  6  0  0  0
  7 14  1  0  0  0  0
  9 16  1  0  0  0  0
 10 11  1  1  0  0  0
 10 18  1  0  0  0  0
 12 13  1  6  0  0  0
 12 20  1  0  0  0  0
 14 15  1  6  0  0  0
 14 22  1  0  0  0  0
 16 17  1  1  0  0  0
 16 24  1  0  0  0  0
 18 19  1  6  0  0  0
 18 25  1  0  0  0  0
 20 21  1  1  0  0  0
 20 27  1  0  0  0  0
 22 23  1  1  0  0  0
 22 29  1  0  0  0  0
 24  2  1  6  0  0  0
 24 31  1  0  0  0  0
 25 26  1  0  0  0  0
 25 33  1  6  0  0  0
 27 28  1  6  0  0  0
 27 35  1  0  0  0  0
 29 30  1  0  0  0  0
 29 37  1  1  0  0  0
 31 32  1  1  0  0  0
 31 39  1  0  0  0  0
 33 34  1  0  0  0  0
 35 36  1  0  0  0  0
 35 41  1  6  0  0  0
 37 38  1  0  0  0  0
 39 40  1  1  0  0  0
 41 42  1  0  0  0  0
M  END
>  <CHROM.1>
-118.45772136,-169.15298120,-169.29713864,128.34309306,69.73400905,-58.62452787
41.87126685,169.69046824,173.42586526,37.09414112,42.48172143,-4.23055551
0.87987158,0.90348692,-0.54482219

>  <Name>
3c44_lig

>  <RI>
0

>  <Rbt.Current_Directory>
/home/itssahil/PROJECTS/Mol_Feturizer/New_Systems/rnas/3c44

>  <Rbt.Executable>
rbdock ($Id: //depot/dev/client3/rdock/2013.1/src/exe/rbdock.cxx#4 $)

>  <Rbt.Library>
libRbt.so (2013.1, Build901 2013/11/27)

>  <Rbt.Parameter_File>
/export/apps/rDock/src/rDock_2013.1_src/data/scripts/dock_solv.prm

>  <Rbt.Receptor>
prm/blind_docking_100.prm

>  <SCORE>
2.04969

>  <SCORE.INTER>
-5.81985

>  <SCORE.INTER.CONST>
1

>  <SCORE.INTER.POLAR>
-0.011225

>  <SCORE.INTER.ROT>
9

>  <SCORE.INTER.SOLV>
22.5208

>  <SCORE.INTER.VDW>
-20.9494

>  <SCORE.INTER.norm>
-0.138568

>  <SCORE.INTRA>
5.24821

>  <SCORE.INTRA.DIHEDRAL>
2.40885

>  <SCORE.INTRA.DIHEDRAL.0>
14.8538

>  <SCORE.INTRA.POLAR>
0

>  <SCORE.INTRA.POLAR.0>
0

>  <SCORE.INTRA.REPUL>
0.135885

>  <SCORE.INTRA.REPUL.0>
0

>  <SCORE.INTRA.SOLV>
-0.154692

>  <SCORE.INTRA.SOLV.lig_0>
-100.951

>  <SCORE.INTRA.VDW>
3.4417

>  <SCORE.INTRA.VDW.0>
-5.71388

>  <SCORE.INTRA.norm>
0.124957

>  <SCORE.RESTR>
2.62133

>  <SCORE.RESTR.CAVITY>
2.62133

>  <SCORE.RESTR.norm>
0.0624126

>  <SCORE.SYSTEM>
0

>  <SCORE.SYSTEM.CONST>
0

>  <SCORE.SYSTEM.DIHEDRAL>
0

>  <SCORE.SYSTEM.SOLV>
0

>  <SCORE.SYSTEM.norm>
0

>  <SCORE.heavy>
42

>  <SCORE.norm>
0.0488021

>  <RMSD>
13.521

$$$$
3c44_lig
 OpenBabel11021811463D
libRbt.so/2013.1/901 2013/11/27
 42 45  0  0  0  0  0  0  0  0999 V2000
   39.5392   42.8288   -6.4367 C   0  0  2  0  0  0  0  0  0  0  0  0
   39.2398   43.9602   -5.6046 O   0  0  0  0  0  0  0  0  0  0  0  0
   36.3909   44.7265   -2.6916 C   0  0  2  0  0  0  0  0  0  0  0  0
   35.2358   44.9417   -1.8065 N   0  0  0  0  0  0  0  0  0  0  0  0
   37.8383   40.6790   -3.2280 C   0  0  1  0  0  0  0  0  0  0  0  0
   35.8504   38.3393   -0.3852 C   0  0  1  0  0  0  0  0  0  0  0  0
   40.3907   43.2914   -7.6236 C   0  0  2  0  0  0  0  0  0  0  0  0
   41.5893   44.0062   -7.1615 N   0  0  0  0  0  0  0  0  0  0  0  0
   36.2460   45.5463   -3.9769 C   0  0  0  0  0  0  0  0  0  0  0  0
   36.5522   39.8625   -3.3640 C   0  0  2  0  0  0  0  0  0  0  0  0
   35.4612   40.5672   -2.7683 O   0  0  0  0  0  0  0  0  0  0  0  0
   34.7548   39.3269    0.0296 C   0  0  2  0  0  0  0  0  0  0  0  0
   35.3803   40.4168    0.7913 N   0  0  0  0  0  0  0  0  0  0  0  0
   39.5936   44.2047   -8.5582 C   0  0  1  0  0  0  0  0  0  0  0  0
   40.3736   44.4805   -9.7257 O   0  0  0  0  0  0  0  0  0  0  0  0
   37.5459   45.3972   -4.7744 C   0  0  2  0  0  0  0  0  0  0  0  0
   37.4214   46.1227   -6.0476 N   0  0  0  0  0  0  0  0  0  0  0  0
   36.9100   38.6702   -2.4790 C   0  0  2  0  0  0  0  0  0  0  0  0
   36.8902   39.0397   -1.0905 O   0  0  0  0  0  0  0  0  0  0  0  0
   33.7010   38.6461    0.9127 C   0  0  1  0  0  0  0  0  0  0  0  0
   32.9131   37.7374    0.1392 O   0  0  0  0  0  0  0  0  0  0  0  0
   38.2885   43.5185   -8.9658 C   0  0  2  0  0  0  0  0  0  0  0  0
   37.4975   44.4167   -9.7484 O   0  0  0  0  0  0  0  0  0  0  0  0
   37.9046   43.9356   -5.0704 C   0  0  2  0  0  0  0  0  0  0  0  0
   38.3441   38.4196   -2.9182 C   0  0  2  0  0  0  0  0  0  0  0  0
   38.8832   39.6941   -3.3310 O   0  0  0  0  0  0  0  0  0  0  0  0
   34.3589   37.8744    2.0578 C   0  0  2  0  0  0  0  0  0  0  0  0
   34.9631   38.8081    2.9573 O   0  0  0  0  0  0  0  0  0  0  0  0
   37.5133   43.1074   -7.7131 C   0  0  2  0  0  0  0  0  0  0  0  0
   38.3146   42.2288   -6.8986 O   0  0  0  0  0  0  0  0  0  0  0  0
   37.8314   43.0133   -3.8552 C   0  0  2  0  0  0  0  0  0  0  0  0
   37.8972   41.6457   -4.2913 O   0  0  0  0  0  0  0  0  0  0  0  0
   38.3556   37.4173   -4.0744 C   0  0  0  0  0  0  0  0  0  0  0  0
   39.7087   37.1574   -4.4542 O   0  0  0  0  0  0  0  0  0  0  0  0
   35.4152   36.9293    1.4789 C   0  0  1  0  0  0  0  0  0  0  0  0
   36.4001   37.7173    0.7872 O   0  0  0  0  0  0  0  0  0  0  0  0
   36.2433   42.3847   -8.1693 C   0  0  0  0  0  0  0  0  0  0  0  0
   35.4755   41.9283   -7.0018 O   0  0  0  0  0  0  0  0  0  0  0  0
   36.5389   43.2493   -3.0649 C   0  0  1  0  0  0  0  0  0  0  0  0
   36.5323   42.4415   -1.8858 O   0  0  0  0  0  0  0  0  0  0  0  0
   36.1078   36.1019    2.5625 C   0  0  0  0  0  0  0  0  0  0  0  0
   35.1590   35.1161    3.0989 N   0  0  0  0  0  0  0  0  0  0  0  0
  1  2  1  1  0  0  0
  1  7  1  0  0  0  0
  1 30  1  0  0  0  0
  3  4  1  1  0  0  0
  3  9  1  0  0  0  0
  3 39  1  0  0  0  0
  5 10  1  0  0  0  0
  5 26  1  0  0  0  0
  5 32  1  6  0  0  0
  6 12  1  0  0  0  0
  6 36  1  0  0  0  0
  6 19  1  1  0  0  0
  7  8  1  1  0  0  0
  7 14  1  0  0  0  0
  9 16  1  0  0  0  0
 10 11  1  1  0  0  0
 10 18  1  0  0  0  0
 12 13  1  1  0  0  0
 12 20  1  0  0  0  0
 14 15  1  6  0  0  0
 14 22  1  0  0  0  0
 16 17  1  6  0  0  0
 16 24  1  0  0  0  0
 18 19  1  1  0  0  0
 18 25  1  0  0  0  0
 20 21  1  6  0  0  0
 20 27  1  0  0  0  0
 22 23  1  1  0  0  0
 22 29  1  0  0  0  0
 24  2  1  1  0  0  0
 24 31  1  0  0  0  0
 25 26  1  0  0  0  0
 25 33  1  6  0  0  0
 27 28  1  1  0  0  0
 27 35  1  0  0  0  0
 29 30  1  0  0  0  0
 29 37  1  6  0  0  0
 31 32  1  6  0  0  0
 31 39  1  0  0  0  0
 33 34  1  0  0  0  0
 35 36  1  0  0  0  0
 35 41  1  1  0  0  0
 37 38  1  0  0  0  0
 39 40  1  1  0  0  0
 41 42  1  0  0  0  0
M  END
>  <CHROM.1>
141.51648133,114.81956338,-111.11871951,114.89275380,-155.41227632,-178.29045926
178.27033975,179.94110508,70.34107711,37.08796155,41.16616524,-3.45066519
-1.04677483,-0.93278432,2.63461543

>  <Name>
3c44_lig

>  <RI>
0

>  <Rbt.Current_Directory>
/home/itssahil/PROJECTS/Mol_Feturizer/New_Systems/rnas/3c44

>  <Rbt.Executable>
rbdock ($Id: //depot/dev/client3/rdock/2013.1/src/exe/rbdock.cxx#4 $)

>  <Rbt.Library>
libRbt.so (2013.1, Build901 2013/11/27)

>  <Rbt.Parameter_File>
/export/apps/rDock/src/rDock_2013.1_src/data/scripts/dock_solv.prm

>  <Rbt.Receptor>
prm/blind_docking_100.prm

>  <SCORE>
33.8502

>  <SCORE.INTER>
16.3765

>  <SCORE.INTER.CONST>
1

>  <SCORE.INTER.POLAR>
-0.762677

>  <SCORE.INTER.ROT>
9

>  <SCORE.INTER.SOLV>
24.9327

>  <SCORE.INTER.VDW>
-4.45097

>  <SCORE.INTER.norm>
0.389917

>  <SCORE.INTRA>
12.329

>  <SCORE.INTRA.DIHEDRAL>
13.8766

>  <SCORE.INTRA.DIHEDRAL.0>
14.8538

>  <SCORE.INTRA.POLAR>
0

>  <SCORE.INTRA.POLAR.0>
0

>  <SCORE.INTRA.REPUL>
0

>  <SCORE.INTRA.REPUL.0>
0

>  <SCORE.INTRA.SOLV>
-1.24901

>  <SCORE.INTRA.SOLV.lig_0>
-100.951

>  <SCORE.INTRA.VDW>
6.01524

>  <SCORE.INTRA.VDW.0>
-5.71388

>  <SCORE.INTRA.norm>
0.293548

>  <SCORE.RESTR>
5.14469

>  <SCORE.RESTR.CAVITY>
5.14469

>  <SCORE.RESTR.norm>
0.122493

>  <SCORE.SYSTEM>
0

>  <SCORE.SYSTEM.CONST>
0

>  <SCORE.SYSTEM.DIHEDRAL>
0

>  <SCORE.SYSTEM.SOLV>
0

>  <SCORE.SYSTEM.norm>
0

>  <SCORE.heavy>
42

>  <SCORE.norm>
0.805957

>  <RMSD>
13.547

$$$$
3c44_lig
 OpenBabel11021811463D
libRbt.so/2013.1/901 2013/11/27
 42 45  0  0  0  0  0  0  0  0999 V2000
   37.9475   43.5735   -7.0762 C   0  0  2  0  0  0  0  0  0  0  0  0
   37.7657   42.1831   -7.3850 O   0  0  0  0  0  0  0  0  0  0  0  0
   38.3281   38.5253   -5.5158 C   0  0  2  0  0  0  0  0  0  0  0  0
   38.7019   37.3170   -4.7648 N   0  0  0  0  0  0  0  0  0  0  0  0
   36.2750   41.6609   -3.3805 C   0  0  1  0  0  0  0  0  0  0  0  0
   35.3988   40.1299    0.4120 C   0  0  1  0  0  0  0  0  0  0  0  0
   38.4166   44.3092   -8.3358 C   0  0  2  0  0  0  0  0  0  0  0  0
   37.4895   44.0785   -9.4531 N   0  0  0  0  0  0  0  0  0  0  0  0
   39.4864   38.9885   -6.4040 C   0  0  0  0  0  0  0  0  0  0  0  0
   37.0388   41.8170   -2.0647 C   0  0  2  0  0  0  0  0  0  0  0  0
   37.7817   40.6284   -1.7874 O   0  0  0  0  0  0  0  0  0  0  0  0
   35.1841   38.6131    0.4399 C   0  0  2  0  0  0  0  0  0  0  0  0
   33.8763   38.3209   -0.1631 N   0  0  0  0  0  0  0  0  0  0  0  0
   39.8206   43.8625   -8.7510 C   0  0  1  0  0  0  0  0  0  0  0  0
   40.2768   44.6846   -9.8296 O   0  0  0  0  0  0  0  0  0  0  0  0
   38.9778   40.1482   -7.2669 C   0  0  2  0  0  0  0  0  0  0  0  0
   40.0819   40.6615   -8.0917 N   0  0  0  0  0  0  0  0  0  0  0  0
   35.8630   41.9005   -1.0934 C   0  0  2  0  0  0  0  0  0  0  0  0
   35.2401   40.6155   -0.9327 O   0  0  0  0  0  0  0  0  0  0  0  0
   35.1975   38.0783    1.8779 C   0  0  1  0  0  0  0  0  0  0  0  0
   36.5199   38.1352    2.4193 O   0  0  0  0  0  0  0  0  0  0  0  0
   40.7792   43.9954   -7.5663 C   0  0  2  0  0  0  0  0  0  0  0  0
   42.0617   43.4747   -7.9253 O   0  0  0  0  0  0  0  0  0  0  0  0
   38.3993   41.3032   -6.4399 C   0  0  2  0  0  0  0  0  0  0  0  0
   34.9324   42.8240   -1.8636 C   0  0  2  0  0  0  0  0  0  0  0  0
   35.1970   42.6082   -3.2667 O   0  0  0  0  0  0  0  0  0  0  0  0
   34.2635   38.8916    2.7755 C   0  0  2  0  0  0  0  0  0  0  0  0
   32.9122   38.6578    2.3688 O   0  0  0  0  0  0  0  0  0  0  0  0
   40.2250   43.2201   -6.3700 C   0  0  2  0  0  0  0  0  0  0  0  0
   38.9167   43.7134   -6.0207 O   0  0  0  0  0  0  0  0  0  0  0  0
   37.4058   40.8685   -5.3644 C   0  0  2  0  0  0  0  0  0  0  0  0
   37.1550   41.9693   -4.4755 O   0  0  0  0  0  0  0  0  0  0  0  0
   35.2124   44.2755   -1.4682 C   0  0  0  0  0  0  0  0  0  0  0  0
   34.2104   45.1179   -2.0419 O   0  0  0  0  0  0  0  0  0  0  0  0
   34.6129   40.3762    2.6422 C   0  0  1  0  0  0  0  0  0  0  0  0
   34.4350   40.7635    1.2683 O   0  0  0  0  0  0  0  0  0  0  0  0
   41.1901   43.4214   -5.1989 C   0  0  0  0  0  0  0  0  0  0  0  0
   40.6431   42.8035   -3.9824 O   0  0  0  0  0  0  0  0  0  0  0  0
   37.9430   39.6693   -4.5743 C   0  0  1  0  0  0  0  0  0  0  0  0
   36.9621   39.2235   -3.6351 O   0  0  0  0  0  0  0  0  0  0  0  0
   33.7340   41.2596    3.5286 C   0  0  0  0  0  0  0  0  0  0  0  0
   34.0968   41.0453    4.9365 N   0  0  0  0  0  0  0  0  0  0  0  0
  1  2  1  6  0  0  0
  1  7  1  0  0  0  0
  1 30  1  0  0  0  0
  3  4  1  1  0  0  0
  3  9  1  0  0  0  0
  3 39  1  0  0  0  0
  5 10  1  0  0  0  0
  5 26  1  0  0  0  0
  5 32  1  6  0  0  0
  6 12  1  0  0  0  0
  6 36  1  0  0  0  0
  6 19  1  6  0  0  0
  7  8  1  6  0  0  0
  7 14  1  0  0  0  0
  9 16  1  0  0  0  0
 10 11  1  1  0  0  0
 10 18  1  0  0  0  0
 12 13  1  1  0  0  0
 12 20  1  0  0  0  0
 14 15  1  6  0  0  0
 14 22  1  0  0  0  0
 16 17  1  1  0  0  0
 16 24  1  0  0  0  0
 18 19  1  6  0  0  0
 18 25  1  0  0  0  0
 20 21  1  1  0  0  0
 20 27  1  0  0  0  0
 22 23  1  6  0  0  0
 22 29  1  0  0  0  0
 24  2  1  6  0  0  0
 24 31  1  0  0  0  0
 25 26  1  0  0  0  0
 25 33  1  1  0  0  0
 27 28  1  6  0  0  0
 27 35  1  0  0  0  0
 29 30  1  0  0  0  0
 29 37  1  1  0  0  0
 31 32  1  1  0  0  0
 31 39  1  0  0  0  0
 33 34  1  0  0  0  0
 35 36  1  0  0  0  0
 35 41  1  1  0  0  0
 37 38  1  0  0  0  0
 39 40  1  1  0  0  0
 41 42  1  0  0  0  0
M  END
>  <CHROM.1>
131.02611419,116.79715007,-160.25710250,114.62414958,-141.29571838,-171.56938873
174.62495288,-177.37206918,70.40268128,37.16341679,41.39589432,-3.31726582
0.62260080,0.97677201,-0.40921438

>  <Name>
3c44_lig

>  <RI>
0

>  <Rbt.Current_Directory>
/home/itssahil/PROJECTS/Mol_Feturizer/New_Systems/rnas/3c44

>  <Rbt.Executable>
rbdock ($Id: //depot/dev/client3/rdock/2013.1/src/exe/rbdock.cxx#4 $)

>  <Rbt.Library>
libRbt.so (2013.1, Build901 2013/11/27)

>  <Rbt.Parameter_File>
/export/apps/rDock/src/rDock_2013.1_src/data/scripts/dock_solv.prm

>  <Rbt.Receptor>
prm/blind_docking_80.prm

>  <SCORE>
4.97558

>  <SCORE.INTER>
-12.1538

>  <SCORE.INTER.CONST>
1

>  <SCORE.INTER.POLAR>
-0.978434

>  <SCORE.INTER.ROT>
9

>  <SCORE.INTER.SOLV>
24.9453

>  <SCORE.INTER.VDW>
-22.7562

>  <SCORE.INTER.norm>
-0.289377

>  <SCORE.INTRA>
13.365

>  <SCORE.INTRA.DIHEDRAL>
13.2689

>  <SCORE.INTRA.DIHEDRAL.0>
14.8538

>  <SCORE.INTRA.POLAR>
0

>  <SCORE.INTRA.POLAR.0>
0

>  <SCORE.INTRA.REPUL>
0.0257961

>  <SCORE.INTRA.REPUL.0>
0

>  <SCORE.INTRA.SOLV>
-0.646672

>  <SCORE.INTRA.SOLV.lig_0>
-100.951

>  <SCORE.INTRA.VDW>
6.92489

>  <SCORE.INTRA.VDW.0>
-5.71388

>  <SCORE.INTRA.norm>
0.318214

>  <SCORE.RESTR>
3.76442

>  <SCORE.RESTR.CAVITY>
3.76442

>  <SCORE.RESTR.norm>
0.0896292

>  <SCORE.SYSTEM>
0

>  <SCORE.SYSTEM.CONST>
0

>  <SCORE.SYSTEM.DIHEDRAL>
0

>  <SCORE.SYSTEM.SOLV>
0

>  <SCORE.SYSTEM.norm>
0

>  <SCORE.heavy>
42

>  <SCORE.norm>
0.118466

>  <RMSD>
13.555

$$$$
3c44_lig
 OpenBabel11021811463D
libRbt.so/2013.1/901 2013/11/27
 42 45  0  0  0  0  0  0  0  0999 V2000
   34.0680   42.9122   -1.6165 C   0  0  2  0  0  0  0  0  0  0  0  0
   35.1693   42.2310   -0.9960 O   0  0  0  0  0  0  0  0  0  0  0  0
   35.3370   39.3311    1.9624 C   0  0  2  0  0  0  0  0  0  0  0  0
   35.2288   38.2129    2.9121 N   0  0  0  0  0  0  0  0  0  0  0  0
   37.5445   39.8886   -2.2210 C   0  0  1  0  0  0  0  0  0  0  0  0
   39.2525   41.2089   -5.2651 C   0  0  1  0  0  0  0  0  0  0  0  0
   34.5896   43.7317   -2.8015 C   0  0  2  0  0  0  0  0  0  0  0  0
   35.3469   42.8829   -3.7327 N   0  0  0  0  0  0  0  0  0  0  0  0
   34.0082   40.0859    1.8639 C   0  0  0  0  0  0  0  0  0  0  0  0
   37.4659   41.2561   -2.9012 C   0  0  2  0  0  0  0  0  0  0  0  0
   36.9849   41.1093   -4.2387 O   0  0  0  0  0  0  0  0  0  0  0  0
   38.9871   39.9625   -6.1159 C   0  0  2  0  0  0  0  0  0  0  0  0
   40.1745   39.0993   -6.0528 N   0  0  0  0  0  0  0  0  0  0  0  0
   35.4850   44.8812   -2.3322 C   0  0  1  0  0  0  0  0  0  0  0  0
   35.8165   45.7076   -3.4522 O   0  0  0  0  0  0  0  0  0  0  0  0
   34.2368   41.3202    0.9851 C   0  0  2  0  0  0  0  0  0  0  0  0
   32.9652   42.0395    0.8164 N   0  0  0  0  0  0  0  0  0  0  0  0
   38.9520   41.6057   -2.9480 C   0  0  2  0  0  0  0  0  0  0  0  0
   39.6328   40.8139   -3.9353 O   0  0  0  0  0  0  0  0  0  0  0  0
   38.7239   40.3374   -7.5802 C   0  0  1  0  0  0  0  0  0  0  0  0
   37.4538   40.9815   -7.7102 O   0  0  0  0  0  0  0  0  0  0  0  0
   34.7506   45.7154   -1.2811 C   0  0  2  0  0  0  0  0  0  0  0  0
   35.6283   46.7201   -0.7660 O   0  0  0  0  0  0  0  0  0  0  0  0
   34.7982   40.9756   -0.4000 C   0  0  2  0  0  0  0  0  0  0  0  0
   39.3839   41.1667   -1.5578 C   0  0  2  0  0  0  0  0  0  0  0  0
   38.5128   40.0810   -1.1732 O   0  0  0  0  0  0  0  0  0  0  0  0
   39.8081   41.2772   -8.1104 C   0  0  2  0  0  0  0  0  0  0  0  0
   41.0432   40.5600   -8.1894 O   0  0  0  0  0  0  0  0  0  0  0  0
   34.2824   44.8076   -0.1426 C   0  0  2  0  0  0  0  0  0  0  0  0
   33.4242   43.7695   -0.6554 O   0  0  0  0  0  0  0  0  0  0  0  0
   35.9913   40.0224   -0.3739 C   0  0  2  0  0  0  0  0  0  0  0  0
   36.2472   39.5440   -1.7044 O   0  0  0  0  0  0  0  0  0  0  0  0
   39.2559   42.3439   -0.5886 C   0  0  0  0  0  0  0  0  0  0  0  0
   40.4026   43.1866   -0.7229 O   0  0  0  0  0  0  0  0  0  0  0  0
   39.9420   42.4694   -7.1593 C   0  0  1  0  0  0  0  0  0  0  0  0
   40.3119   41.9752   -5.8600 O   0  0  0  0  0  0  0  0  0  0  0  0
   33.5140   45.6755    0.8572 C   0  0  0  0  0  0  0  0  0  0  0  0
   32.2862   46.1933    0.2365 O   0  0  0  0  0  0  0  0  0  0  0  0
   35.7279   38.8401    0.5662 C   0  0  1  0  0  0  0  0  0  0  0  0
   36.8887   38.0097    0.6445 O   0  0  0  0  0  0  0  0  0  0  0  0
   40.9960   43.4715   -7.6319 C   0  0  0  0  0  0  0  0  0  0  0  0
   40.5599   44.0696   -8.9015 N   0  0  0  0  0  0  0  0  0  0  0  0
  1  2  1  1  0  0  0
  1  7  1  0  0  0  0
  1 30  1  0  0  0  0
  3  4  1  1  0  0  0
  3  9  1  0  0  0  0
  3 39  1  0  0  0  0
  5 10  1  0  0  0  0
  5 26  1  0  0  0  0
  5 32  1  1  0  0  0
  6 12  1  0  0  0  0
  6 36  1  0  0  0  0
  6 19  1  1  0  0  0
  7  8  1  6  0  0  0
  7 14  1  0  0  0  0
  9 16  1  0  0  0  0
 10 11  1  6  0  0  0
 10 18  1  0  0  0  0
 12 13  1  6  0  0  0
 12 20  1  0  0  0  0
 14 15  1  6  0  0  0
 14 22  1  0  0  0  0
 16 17  1  6  0  0  0
 16 24  1  0  0  0  0
 18 19  1  6  0  0  0
 18 25  1  0  0  0  0
 20 21  1  1  0  0  0
 20 27  1  0  0  0  0
 22 23  1  1  0  0  0
 22 29  1  0  0  0  0
 24  2  1  1  0  0  0
 24 31  1  0  0  0  0
 25 26  1  0  0  0  0
 25 33  1  1  0  0  0
 27 28  1  1  0  0  0
 27 35  1  0  0  0  0
 29 30  1  0  0  0  0
 29 37  1  1  0  0  0
 31 32  1  6  0  0  0
 31 39  1  0  0  0  0
 33 34  1  0  0  0  0
 35 36  1  0  0  0  0
 35 41  1  6  0  0  0
 37 38  1  0  0  0  0
 39 40  1  1  0  0  0
 41 42  1  0  0  0  0
M  END
>  <CHROM.1>
-149.22478009,-87.96405082,-135.50524651,70.33141539,-83.19037507,-81.14233966
65.45608082,118.65803385,64.93180649,36.94593908,41.93746407,-2.58537429
2.74422511,-0.86959182,2.51102051

>  <Name>
3c44_lig

>  <RI>
224

>  <Rbt.Current_Directory>
/home/itssahil/PROJECTS/Mol_Feturizer/New_Systems/rnas/3c44

>  <Rbt.Executable>
rbdock ($Id: //depot/dev/client3/rdock/2013.1/src/exe/rbdock.cxx#4 $)

>  <Rbt.Library>
libRbt.so (2013.1, Build901 2013/11/27)

>  <Rbt.Parameter_File>
/export/apps/rDock/src/rDock_2013.1_src/data/scripts/dock_solv.prm

>  <Rbt.Receptor>
prm/blind_docking_60.prm

>  <SCORE>
9.743

>  <SCORE.INTER>
-10.3553

>  <SCORE.INTER.CONST>
1

>  <SCORE.INTER.POLAR>
-0.645949

>  <SCORE.INTER.ROT>
9

>  <SCORE.INTER.SOLV>
23.0393

>  <SCORE.INTER.VDW>
-22.0301

>  <SCORE.INTER.norm>
-0.246555

>  <SCORE.INTRA>
12.0538

>  <SCORE.INTRA.DIHEDRAL>
10.1994

>  <SCORE.INTRA.DIHEDRAL.0>
14.8538

>  <SCORE.INTRA.POLAR>
0

>  <SCORE.INTRA.POLAR.0>
0

>  <SCORE.INTRA.REPUL>
0

>  <SCORE.INTRA.REPUL.0>
0

>  <SCORE.INTRA.SOLV>
2.09745

>  <SCORE.INTRA.SOLV.lig_0>
-100.951

>  <SCORE.INTRA.VDW>
5.90533

>  <SCORE.INTRA.VDW.0>
-5.71388

>  <SCORE.INTRA.norm>
0.286995

>  <SCORE.RESTR>
8.04452

>  <SCORE.RESTR.CAVITY>
8.04452

>  <SCORE.RESTR.norm>
0.191536

>  <SCORE.SYSTEM>
0

>  <SCORE.SYSTEM.CONST>
0

>  <SCORE.SYSTEM.DIHEDRAL>
0

>  <SCORE.SYSTEM.SOLV>
0

>  <SCORE.SYSTEM.norm>
0

>  <SCORE.heavy>
42

>  <SCORE.norm>
0.231976

>  <RMSD>
13.566

$$$$
3c44_lig
 OpenBabel11021811463D
libRbt.so/2013.1/901 2013/11/27
 42 45  0  0  0  0  0  0  0  0999 V2000
   37.5620   40.8141   -5.4417 C   0  0  2  0  0  0  0  0  0  0  0  0
   36.3677   41.5931   -5.2727 O   0  0  0  0  0  0  0  0  0  0  0  0
   38.2562   44.6993   -7.2664 C   0  0  2  0  0  0  0  0  0  0  0  0
   38.7294   45.8605   -8.0356 N   0  0  0  0  0  0  0  0  0  0  0  0
   35.6246   43.2541   -3.3584 C   0  0  1  0  0  0  0  0  0  0  0  0
   35.4207   40.6250   -0.0808 C   0  0  1  0  0  0  0  0  0  0  0  0
   37.4328   39.5178   -4.6349 C   0  0  2  0  0  0  0  0  0  0  0  0
   36.2086   38.7918   -5.0024 N   0  0  0  0  0  0  0  0  0  0  0  0
   37.4161   43.7727   -8.1500 C   0  0  0  0  0  0  0  0  0  0  0  0
   35.8065   43.5547   -1.8699 C   0  0  2  0  0  0  0  0  0  0  0  0
   37.1186   43.1737   -1.4517 O   0  0  0  0  0  0  0  0  0  0  0  0
   35.8236   39.1540   -0.2280 C   0  0  2  0  0  0  0  0  0  0  0  0
   34.8434   38.4921   -1.0999 N   0  0  0  0  0  0  0  0  0  0  0  0
   37.4149   39.7982   -3.1301 C   0  0  1  0  0  0  0  0  0  0  0  0
   37.4536   38.5571   -2.4191 O   0  0  0  0  0  0  0  0  0  0  0  0
   37.0912   42.5175   -7.3332 C   0  0  2  0  0  0  0  0  0  0  0  0
   36.2317   41.6283   -8.1292 N   0  0  0  0  0  0  0  0  0  0  0  0
   34.7973   42.5695   -1.2836 C   0  0  2  0  0  0  0  0  0  0  0  0
   35.2826   41.2205   -1.3828 O   0  0  0  0  0  0  0  0  0  0  0  0
   35.8360   38.4444    1.1323 C   0  0  1  0  0  0  0  0  0  0  0  0
   36.9317   38.9065    1.9265 O   0  0  0  0  0  0  0  0  0  0  0  0
   38.6291   40.6456   -2.7455 C   0  0  2  0  0  0  0  0  0  0  0  0
   38.5505   40.9973   -1.3617 O   0  0  0  0  0  0  0  0  0  0  0  0
   36.3869   42.8298   -6.0070 C   0  0  2  0  0  0  0  0  0  0  0  0
   33.6325   42.7627   -2.2418 C   0  0  2  0  0  0  0  0  0  0  0  0
   34.1977   43.1435   -3.5149 O   0  0  0  0  0  0  0  0  0  0  0  0
   34.5348   38.6969    1.8957 C   0  0  2  0  0  0  0  0  0  0  0  0
   33.4631   38.0412    1.2119 O   0  0  0  0  0  0  0  0  0  0  0  0
   38.6586   41.9147   -3.5986 C   0  0  2  0  0  0  0  0  0  0  0  0
   38.7027   41.5723   -4.9979 O   0  0  0  0  0  0  0  0  0  0  0  0
   37.0561   43.9296   -5.1852 C   0  0  2  0  0  0  0  0  0  0  0  0
   36.1723   44.3384   -4.1285 O   0  0  0  0  0  0  0  0  0  0  0  0
   32.7052   43.8543   -1.7034 C   0  0  0  0  0  0  0  0  0  0  0  0
   32.1909   43.4464   -0.4337 O   0  0  0  0  0  0  0  0  0  0  0  0
   34.2822   40.2054    1.9637 C   0  0  1  0  0  0  0  0  0  0  0  0
   34.1700   40.7085    0.6207 O   0  0  0  0  0  0  0  0  0  0  0  0
   39.9122   42.7041   -3.2132 C   0  0  0  0  0  0  0  0  0  0  0  0
   41.1175   41.9641   -3.6141 O   0  0  0  0  0  0  0  0  0  0  0  0
   37.4109   45.1333   -6.0662 C   0  0  1  0  0  0  0  0  0  0  0  0
   38.1148   46.1113   -5.2974 O   0  0  0  0  0  0  0  0  0  0  0  0
   33.0049   40.5443    2.7331 C   0  0  0  0  0  0  0  0  0  0  0  0
   32.9618   41.9914    2.9856 N   0  0  0  0  0  0  0  0  0  0  0  0
  1  2  1  1  0  0  0
  1  7  1  0  0  0  0
  1 30  1  0  0  0  0
  3  4  1  6  0  0  0
  3  9  1  0  0  0  0
  3 39  1  0  0  0  0
  5 10  1  0  0  0  0
  5 26  1  0  0  0  0
  5 32  1  6  0  0  0
  6 12  1  0  0  0  0
  6 36  1  0  0  0  0
  6 19  1  6  0  0  0
  7  8  1  6  0  0  0
  7 14  1  0  0  0  0
  9 16  1  0  0  0  0
 10 11  1  1  0  0  0
 10 18  1  0  0  0  0
 12 13  1  6  0  0  0
 12 20  1  0  0  0  0
 14 15  1  1  0  0  0
 14 22  1  0  0  0  0
 16 17  1  6  0  0  0
 16 24  1  0  0  0  0
 18 19  1  6  0  0  0
 18 25  1  0  0  0  0
 20 21  1  1  0  0  0
 20 27  1  0  0  0  0
 22 23  1  1  0  0  0
 22 29  1  0  0  0  0
 24  2  1  1  0  0  0
 24 31  1  0  0  0  0
 25 26  1  0  0  0  0
 25 33  1  1  0  0  0
 27 28  1  6  0  0  0
 27 35  1  0  0  0  0
 29 30  1  0  0  0  0
 29 37  1  1  0  0  0
 31 32  1  1  0  0  0
 31 39  1  0  0  0  0
 33 34  1  0  0  0  0
 35 36  1  0  0  0  0
 35 41  1  1  0  0  0
 37 38  1  0  0  0  0
 39 40  1  1  0  0  0
 41 42  1  0  0  0  0
M  END
>  <CHROM.1>
-179.38116347,130.88102751,175.19683588,119.04358658,37.42482303,-61.19354773
66.71094981,49.45078165,169.04534353,36.27644247,41.72741502,-2.70987125
-1.04007017,-0.69951719,2.37811423

>  <Name>
3c44_lig

>  <RI>
0

>  <Rbt.Current_Directory>
/home/itssahil/PROJECTS/Mol_Feturizer/New_Systems/rnas/3c44

>  <Rbt.Executable>
rbdock ($Id: //depot/dev/client3/rdock/2013.1/src/exe/rbdock.cxx#4 $)

>  <Rbt.Library>
libRbt.so (2013.1, Build901 2013/11/27)

>  <Rbt.Parameter_File>
/export/apps/rDock/src/rDock_2013.1_src/data/scripts/dock_solv.prm

>  <Rbt.Receptor>
prm/blind_docking_80.prm

>  <SCORE>
0.779037

>  <SCORE.INTER>
-10.5319

>  <SCORE.INTER.CONST>
1

>  <SCORE.INTER.POLAR>
-0.218177

>  <SCORE.INTER.ROT>
9

>  <SCORE.INTER.SOLV>
22.8537

>  <SCORE.INTER.VDW>
-23.5119

>  <SCORE.INTER.norm>
-0.25076

>  <SCORE.INTRA>
6.46468

>  <SCORE.INTRA.DIHEDRAL>
2.09516

>  <SCORE.INTRA.DIHEDRAL.0>
14.8538

>  <SCORE.INTRA.POLAR>
0

>  <SCORE.INTRA.POLAR.0>
0

>  <SCORE.INTRA.REPUL>
0.259988

>  <SCORE.INTRA.REPUL.0>
0

>  <SCORE.INTRA.SOLV>
0.483413

>  <SCORE.INTRA.SOLV.lig_0>
-100.951

>  <SCORE.INTRA.VDW>
3.87545

>  <SCORE.INTRA.VDW.0>
-5.71388

>  <SCORE.INTRA.norm>
0.153921

>  <SCORE.RESTR>
4.84626

>  <SCORE.RESTR.CAVITY>
4.84626

>  <SCORE.RESTR.norm>
0.115387

>  <SCORE.SYSTEM>
0

>  <SCORE.SYSTEM.CONST>
0

>  <SCORE.SYSTEM.DIHEDRAL>
0

>  <SCORE.SYSTEM.SOLV>
0

>  <SCORE.SYSTEM.norm>
0

>  <SCORE.heavy>
42

>  <SCORE.norm>
0.0185485

>  <RMSD>
13.592

$$$$
3c44_lig
 OpenBabel11021811463D
libRbt.so/2013.1/901 2013/11/27
 42 45  0  0  0  0  0  0  0  0999 V2000
   38.0103   41.3412   -6.5898 C   0  0  2  0  0  0  0  0  0  0  0  0
   37.1249   41.9534   -5.6394 O   0  0  0  0  0  0  0  0  0  0  0  0
   37.8091   46.0367   -5.4206 C   0  0  2  0  0  0  0  0  0  0  0  0
   37.9024   47.5028   -5.4961 N   0  0  0  0  0  0  0  0  0  0  0  0
   35.0402   42.7317   -3.2060 C   0  0  1  0  0  0  0  0  0  0  0  0
   35.6911   40.2987    0.1730 C   0  0  1  0  0  0  0  0  0  0  0  0
   37.7694   39.8279   -6.5962 C   0  0  2  0  0  0  0  0  0  0  0  0
   36.3524   39.5240   -6.8425 N   0  0  0  0  0  0  0  0  0  0  0  0
   38.0417   45.4095   -6.7983 C   0  0  0  0  0  0  0  0  0  0  0  0
   36.0007   43.2002   -2.1120 C   0  0  2  0  0  0  0  0  0  0  0  0
   37.3297   42.7690   -2.4117 O   0  0  0  0  0  0  0  0  0  0  0  0
   35.8689   38.7940   -0.0545 C   0  0  2  0  0  0  0  0  0  0  0  0
   34.9195   38.3688   -1.0923 N   0  0  0  0  0  0  0  0  0  0  0  0
   38.1939   39.1911   -5.2705 C   0  0  1  0  0  0  0  0  0  0  0  0
   38.1002   37.7675   -5.3803 O   0  0  0  0  0  0  0  0  0  0  0  0
   38.0857   43.8886   -6.6170 C   0  0  2  0  0  0  0  0  0  0  0  0
   38.2467   43.2467   -7.9304 N   0  0  0  0  0  0  0  0  0  0  0  0
   35.4708   42.3812   -0.9367 C   0  0  2  0  0  0  0  0  0  0  0  0
   35.8239   40.9954   -1.0784 O   0  0  0  0  0  0  0  0  0  0  0  0
   35.5871   38.0027    1.2294 C   0  0  1  0  0  0  0  0  0  0  0  0
   36.6278   38.2169    2.1865 O   0  0  0  0  0  0  0  0  0  0  0  0
   39.6356   39.5847   -4.9437 C   0  0  2  0  0  0  0  0  0  0  0  0
   39.9910   39.0794   -3.6540 O   0  0  0  0  0  0  0  0  0  0  0  0
   36.8275   43.3276   -5.9427 C   0  0  2  0  0  0  0  0  0  0  0  0
   33.9725   42.5472   -1.1365 C   0  0  2  0  0  0  0  0  0  0  0  0
   33.7567   42.7186   -2.5541 O   0  0  0  0  0  0  0  0  0  0  0  0
   34.2537   38.4210    1.8513 C   0  0  2  0  0  0  0  0  0  0  0  0
   33.1909   38.0048    0.9892 O   0  0  0  0  0  0  0  0  0  0  0  0
   39.7649   41.1087   -4.9534 C   0  0  2  0  0  0  0  0  0  0  0  0
   39.3758   41.6325   -6.2384 O   0  0  0  0  0  0  0  0  0  0  0  0
   36.4066   44.0752   -4.6792 C   0  0  2  0  0  0  0  0  0  0  0  0
   35.0830   43.6631   -4.3011 O   0  0  0  0  0  0  0  0  0  0  0  0
   33.4862   43.7692   -0.3545 C   0  0  0  0  0  0  0  0  0  0  0  0
   33.4836   43.4604    1.0410 O   0  0  0  0  0  0  0  0  0  0  0  0
   34.2394   39.9424    2.0218 C   0  0  1  0  0  0  0  0  0  0  0  0
   34.3882   40.5466    0.7248 O   0  0  0  0  0  0  0  0  0  0  0  0
   41.2296   41.4521   -4.6699 C   0  0  0  0  0  0  0  0  0  0  0  0
   41.3593   42.8801   -4.3460 O   0  0  0  0  0  0  0  0  0  0  0  0
   36.4389   45.5917   -4.9031 C   0  0  1  0  0  0  0  0  0  0  0  0
   36.1289   46.2726   -3.6852 O   0  0  0  0  0  0  0  0  0  0  0  0
   32.9425   40.4412    2.6601 C   0  0  0  0  0  0  0  0  0  0  0  0
   31.8878   40.4900    1.6380 N   0  0  0  0  0  0  0  0  0  0  0  0
  1  2  1  1  0  0  0
  1  7  1  0  0  0  0
  1 30  1  0  0  0  0
  3  4  1  6  0  0  0
  3  9  1  0  0  0  0
  3 39  1  0  0  0  0
  5 10  1  0  0  0  0
  5 26  1  0  0  0  0
  5 32  1  6  0  0  0
  6 12  1  0  0  0  0
  6 36  1  0  0  0  0
  6 19  1  6  0  0  0
  7  8  1  1  0  0  0
  7 14  1  0  0  0  0
  9 16  1  0  0  0  0
 10 11  1  6  0  0  0
 10 18  1  0  0  0  0
 12 13  1  6  0  0  0
 12 20  1  0  0  0  0
 14 15  1  6  0  0  0
 14 22  1  0  0  0  0
 16 17  1  6  0  0  0
 16 24  1  0  0  0  0
 18 19  1  6  0  0  0
 18 25  1  0  0  0  0
 20 21  1  1  0  0  0
 20 27  1  0  0  0  0
 22 23  1  1  0  0  0
 22 29  1  0  0  0  0
 24  2  1  1  0  0  0
 24 31  1  0  0  0  0
 25 26  1  0  0  0  0
 25 33  1  1  0  0  0
 27 28  1  6  0  0  0
 27 35  1  0  0  0  0
 29 30  1  0  0  0  0
 29 37  1  6  0  0  0
 31 32  1  6  0  0  0
 31 39  1  0  0  0  0
 33 34  1  0  0  0  0
 35 36  1  0  0  0  0
 35 41  1  6  0  0  0
 37 38  1  0  0  0  0
 39 40  1  1  0  0  0
 41 42  1  0  0  0  0
M  END
>  <CHROM.1>
-154.10162165,44.49197568,171.56156952,162.84367645,-32.11674805,-73.09488854
-166.39191256,102.37935332,-79.29330436,36.47272314,41.66855240,-2.86286221
-0.75790226,-0.84848244,2.66435534

>  <Name>
3c44_lig

>  <RI>
224

>  <Rbt.Current_Directory>
/home/itssahil/PROJECTS/Mol_Feturizer/New_Systems/rnas/3c44

>  <Rbt.Executable>
rbdock ($Id: //depot/dev/client3/rdock/2013.1/src/exe/rbdock.cxx#4 $)

>  <Rbt.Library>
libRbt.so (2013.1, Build901 2013/11/27)

>  <Rbt.Parameter_File>
/export/apps/rDock/src/rDock_2013.1_src/data/scripts/dock_solv.prm

>  <Rbt.Receptor>
prm/blind_docking_60.prm

>  <SCORE>
13.0908

>  <SCORE.INTER>
-8.60242

>  <SCORE.INTER.CONST>
1

>  <SCORE.INTER.POLAR>
-0.822309

>  <SCORE.INTER.ROT>
9

>  <SCORE.INTER.SOLV>
23.3073

>  <SCORE.INTER.VDW>
-20.363

>  <SCORE.INTER.norm>
-0.204819

>  <SCORE.INTRA>
15.8848

>  <SCORE.INTRA.DIHEDRAL>
2.54416

>  <SCORE.INTRA.DIHEDRAL.0>
14.8538

>  <SCORE.INTRA.POLAR>
0

>  <SCORE.INTRA.POLAR.0>
0

>  <SCORE.INTRA.REPUL>
0

>  <SCORE.INTRA.REPUL.0>
0

>  <SCORE.INTRA.SOLV>
1.33466

>  <SCORE.INTRA.SOLV.lig_0>
-100.951

>  <SCORE.INTRA.VDW>
13.9454

>  <SCORE.INTRA.VDW.0>
-5.71388

>  <SCORE.INTRA.norm>
0.37821

>  <SCORE.RESTR>
5.80841

>  <SCORE.RESTR.CAVITY>
5.80841

>  <SCORE.RESTR.norm>
0.138295

>  <SCORE.SYSTEM>
0

>  <SCORE.SYSTEM.CONST>
0

>  <SCORE.SYSTEM.DIHEDRAL>
0

>  <SCORE.SYSTEM.SOLV>
0

>  <SCORE.SYSTEM.norm>
0

>  <SCORE.heavy>
42

>  <SCORE.norm>
0.311686

>  <RMSD>
13.598

$$$$
3c44_lig
 OpenBabel11021811463D
libRbt.so/2013.1/901 2013/11/27
 42 45  0  0  0  0  0  0  0  0999 V2000
   33.5302   42.7468   -0.3808 C   0  0  2  0  0  0  0  0  0  0  0  0
   34.1987   43.6556    0.5074 O   0  0  0  0  0  0  0  0  0  0  0  0
   34.4484   46.3346   -2.6470 C   0  0  2  0  0  0  0  0  0  0  0  0
   34.6583   47.4040   -3.6349 N   0  0  0  0  0  0  0  0  0  0  0  0
   37.0203   42.5361   -1.6070 C   0  0  1  0  0  0  0  0  0  0  0  0
   36.8849   40.4482   -4.8874 C   0  0  1  0  0  0  0  0  0  0  0  0
   32.3643   42.0865    0.3625 C   0  0  2  0  0  0  0  0  0  0  0  0
   31.4689   43.1001    0.9386 N   0  0  0  0  0  0  0  0  0  0  0  0
   33.8551   46.9026   -1.3546 C   0  0  0  0  0  0  0  0  0  0  0  0
   37.6859   42.7407   -2.9686 C   0  0  2  0  0  0  0  0  0  0  0  0
   36.6923   42.9845   -3.9661 O   0  0  0  0  0  0  0  0  0  0  0  0
   36.1455   39.1648   -5.2799 C   0  0  2  0  0  0  0  0  0  0  0  0
   36.9784   38.0167   -4.8961 N   0  0  0  0  0  0  0  0  0  0  0  0
   32.8653   41.1689    1.4807 C   0  0  1  0  0  0  0  0  0  0  0  0
   31.7564   40.4570    2.0383 O   0  0  0  0  0  0  0  0  0  0  0  0
   33.5196   45.7222   -0.4369 C   0  0  2  0  0  0  0  0  0  0  0  0
   33.0029   46.2319    0.8422 N   0  0  0  0  0  0  0  0  0  0  0  0
   38.2666   41.3443   -3.1832 C   0  0  2  0  0  0  0  0  0  0  0  0
   37.2278   40.4003   -3.4913 O   0  0  0  0  0  0  0  0  0  0  0  0
   35.8939   39.1112   -6.7925 C   0  0  1  0  0  0  0  0  0  0  0  0
   34.9045   40.0728   -7.1684 O   0  0  0  0  0  0  0  0  0  0  0  0
   33.8815   40.1730    0.9187 C   0  0  2  0  0  0  0  0  0  0  0  0
   34.4282   39.3916    1.9844 O   0  0  0  0  0  0  0  0  0  0  0  0
   34.7258   44.8167   -0.1581 C   0  0  2  0  0  0  0  0  0  0  0  0
   38.8190   41.0578   -1.7958 C   0  0  2  0  0  0  0  0  0  0  0  0
   37.9920   41.7817   -0.8592 O   0  0  0  0  0  0  0  0  0  0  0  0
   37.1778   39.3959   -7.5736 C   0  0  2  0  0  0  0  0  0  0  0  0
   38.0915   38.3141   -7.3712 O   0  0  0  0  0  0  0  0  0  0  0  0
   35.0035   40.9322    0.2088 C   0  0  2  0  0  0  0  0  0  0  0  0
   34.4601   41.7507   -0.8458 O   0  0  0  0  0  0  0  0  0  0  0  0
   35.5065   44.4097   -1.4061 C   0  0  2  0  0  0  0  0  0  0  0  0
   36.7565   43.8196   -1.0139 O   0  0  0  0  0  0  0  0  0  0  0  0
   40.2741   41.5251   -1.7199 C   0  0  0  0  0  0  0  0  0  0  0  0
   40.3526   42.8828   -2.1599 O   0  0  0  0  0  0  0  0  0  0  0  0
   37.7845   40.7092   -7.0726 C   0  0  1  0  0  0  0  0  0  0  0  0
   38.0821   40.5675   -5.6723 O   0  0  0  0  0  0  0  0  0  0  0  0
   35.9669   39.8964   -0.3764 C   0  0  0  0  0  0  0  0  0  0  0  0
   35.2172   38.8727   -1.1185 O   0  0  0  0  0  0  0  0  0  0  0  0
   35.7603   45.6198   -2.3128 C   0  0  1  0  0  0  0  0  0  0  0  0
   36.4123   45.2024   -3.5143 O   0  0  0  0  0  0  0  0  0  0  0  0
   39.0659   41.0777   -7.8213 C   0  0  0  0  0  0  0  0  0  0  0  0
   40.1686   40.2359   -7.3366 N   0  0  0  0  0  0  0  0  0  0  0  0
  1  2  1  1  0  0  0
  1  7  1  0  0  0  0
  1 30  1  0  0  0  0
  3  4  1  6  0  0  0
  3  9  1  0  0  0  0
  3 39  1  0  0  0  0
  5 10  1  0  0  0  0
  5 26  1  0  0  0  0
  5 32  1  1  0  0  0
  6 12  1  0  0  0  0
  6 36  1  0  0  0  0
  6 19  1  1  0  0  0
  7  8  1  1  0  0  0
  7 14  1  0  0  0  0
  9 16  1  0  0  0  0
 10 11  1  6  0  0  0
 10 18  1  0  0  0  0
 12 13  1  6  0  0  0
 12 20  1  0  0  0  0
 14 15  1  6  0  0  0
 14 22  1  0  0  0  0
 16 17  1  1  0  0  0
 16 24  1  0  0  0  0
 18 19  1  1  0  0  0
 18 25  1  0  0  0  0
 20 21  1  1  0  0  0
 20 27  1  0  0  0  0
 22 23  1  1  0  0  0
 22 29  1  0  0  0  0
 24  2  1  6  0  0  0
 24 31  1  0  0  0  0
 25 26  1  0  0  0  0
 25 33  1  6  0  0  0
 27 28  1  1  0  0  0
 27 35  1  0  0  0  0
 29 30  1  0  0  0  0
 29 37  1  6  0  0  0
 31 32  1  1  0  0  0
 31 39  1  0  0  0  0
 33 34  1  0  0  0  0
 35 36  1  0  0  0  0
 35 41  1  6  0  0  0
 37 38  1  0  0  0  0
 39 40  1  6  0  0  0
 41 42  1  0  0  0  0
M  END
>  <CHROM.1>
-146.26814474,86.35050486,161.43325121,82.60085494,76.07777637,51.97587889
48.79806387,128.22302781,-76.05314006,35.95645479,41.99461523,-2.46126934
2.75990592,0.98447629,-0.03823348

>  <Name>
3c44_lig

>  <RI>
224

>  <Rbt.Current_Directory>
/home/itssahil/PROJECTS/Mol_Feturizer/New_Systems/rnas/3c44

>  <Rbt.Executable>
rbdock ($Id: //depot/dev/client3/rdock/2013.1/src/exe/rbdock.cxx#4 $)

>  <Rbt.Library>
libRbt.so (2013.1, Build901 2013/11/27)

>  <Rbt.Parameter_File>
/export/apps/rDock/src/rDock_2013.1_src/data/scripts/dock_solv.prm

>  <Rbt.Receptor>
prm/blind_docking_60.prm

>  <SCORE>
21.6066

>  <SCORE.INTER>
3.99947

>  <SCORE.INTER.CONST>
1

>  <SCORE.INTER.POLAR>
-2.07994

>  <SCORE.INTER.ROT>
9

>  <SCORE.INTER.SOLV>
18.8739

>  <SCORE.INTER.VDW>
-6.29187

>  <SCORE.INTER.norm>
0.0952254

>  <SCORE.INTRA>
10.0449

>  <SCORE.INTRA.DIHEDRAL>
5.97952

>  <SCORE.INTRA.DIHEDRAL.0>
14.8538

>  <SCORE.INTRA.POLAR>
0

>  <SCORE.INTRA.POLAR.0>
0

>  <SCORE.INTRA.REPUL>
0.0187581

>  <SCORE.INTRA.REPUL.0>
0

>  <SCORE.INTRA.SOLV>
1.14524

>  <SCORE.INTRA.SOLV.lig_0>
-100.951

>  <SCORE.INTRA.VDW>
6.38875

>  <SCORE.INTRA.VDW.0>
-5.71388

>  <SCORE.INTRA.norm>
0.239165

>  <SCORE.RESTR>
7.56221

>  <SCORE.RESTR.CAVITY>
7.56221

>  <SCORE.RESTR.norm>
0.180053

>  <SCORE.SYSTEM>
0

>  <SCORE.SYSTEM.CONST>
0

>  <SCORE.SYSTEM.DIHEDRAL>
0

>  <SCORE.SYSTEM.SOLV>
0

>  <SCORE.SYSTEM.norm>
0

>  <SCORE.heavy>
42

>  <SCORE.norm>
0.514443

>  <RMSD>
13.673

$$$$
3c44_lig
 OpenBabel11021811463D
libRbt.so/2013.1/901 2013/11/27
 42 45  0  0  0  0  0  0  0  0999 V2000
   38.3334   43.4677   -6.4687 C   0  0  2  0  0  0  0  0  0  0  0  0
   38.0932   42.1015   -6.8398 O   0  0  0  0  0  0  0  0  0  0  0  0
   38.6100   38.3186   -5.2235 C   0  0  2  0  0  0  0  0  0  0  0  0
   38.9667   37.0585   -4.5536 N   0  0  0  0  0  0  0  0  0  0  0  0
   36.4221   41.3641   -2.9959 C   0  0  1  0  0  0  0  0  0  0  0  0
   34.4560   40.1783    0.5964 C   0  0  1  0  0  0  0  0  0  0  0  0
   37.5689   44.3884   -7.4257 C   0  0  2  0  0  0  0  0  0  0  0  0
   36.1416   44.0383   -7.4613 N   0  0  0  0  0  0  0  0  0  0  0  0
   39.7838   38.8363   -6.0598 C   0  0  0  0  0  0  0  0  0  0  0  0
   36.9686   41.6184   -1.5902 C   0  0  2  0  0  0  0  0  0  0  0  0
   37.7296   40.4916   -1.1511 O   0  0  0  0  0  0  0  0  0  0  0  0
   35.5211   39.9868    1.6811 C   0  0  2  0  0  0  0  0  0  0  0  0
   36.3901   38.8708    1.2827 N   0  0  0  0  0  0  0  0  0  0  0  0
   38.1377   44.3121   -8.8448 C   0  0  1  0  0  0  0  0  0  0  0  0
   37.5008   45.2994   -9.6614 O   0  0  0  0  0  0  0  0  0  0  0  0
   39.2938   40.0565   -6.8467 C   0  0  2  0  0  0  0  0  0  0  0  0
   40.4127   40.6199   -7.6171 N   0  0  0  0  0  0  0  0  0  0  0  0
   35.6571   41.6616   -0.8085 C   0  0  2  0  0  0  0  0  0  0  0  0
   35.0935   40.3458   -0.6822 O   0  0  0  0  0  0  0  0  0  0  0  0
   34.8795   39.6566    3.0351 C   0  0  1  0  0  0  0  0  0  0  0  0
   34.2129   40.8054    3.5650 O   0  0  0  0  0  0  0  0  0  0  0  0
   39.6454   44.5693   -8.8143 C   0  0  2  0  0  0  0  0  0  0  0  0
   40.1902   44.3888  -10.1241 O   0  0  0  0  0  0  0  0  0  0  0  0
   38.7082   41.1540   -5.9494 C   0  0  2  0  0  0  0  0  0  0  0  0
   34.8006   42.4935   -1.7501 C   0  0  2  0  0  0  0  0  0  0  0  0
   35.2857   42.2432   -3.0870 O   0  0  0  0  0  0  0  0  0  0  0  0
   33.8659   38.5190    2.9001 C   0  0  2  0  0  0  0  0  0  0  0  0
   34.5654   37.3119    2.5841 O   0  0  0  0  0  0  0  0  0  0  0  0
   40.3112   43.5955   -7.8408 C   0  0  2  0  0  0  0  0  0  0  0  0
   39.7453   43.7443   -6.5237 O   0  0  0  0  0  0  0  0  0  0  0  0
   37.6964   40.6507   -4.9219 C   0  0  2  0  0  0  0  0  0  0  0  0
   37.4374   41.6879   -3.9618 O   0  0  0  0  0  0  0  0  0  0  0  0
   34.9325   43.9738   -1.3855 C   0  0  0  0  0  0  0  0  0  0  0  0
   36.2146   44.4461   -1.8052 O   0  0  0  0  0  0  0  0  0  0  0  0
   32.8716   38.8673    1.7893 C   0  0  1  0  0  0  0  0  0  0  0  0
   33.6008   39.0248    0.5593 O   0  0  0  0  0  0  0  0  0  0  0  0
   41.8065   43.9217   -7.8078 C   0  0  0  0  0  0  0  0  0  0  0  0
   42.5342   42.8789   -7.0703 O   0  0  0  0  0  0  0  0  0  0  0  0
   38.2159   39.3960   -4.2100 C   0  0  1  0  0  0  0  0  0  0  0  0
   37.2189   38.8912   -3.3189 O   0  0  0  0  0  0  0  0  0  0  0  0
   31.8073   37.7848    1.6046 C   0  0  0  0  0  0  0  0  0  0  0  0
   32.4662   36.5009    1.3272 N   0  0  0  0  0  0  0  0  0  0  0  0
  1  2  1  6  0  0  0
  1  7  1  0  0  0  0
  1 30  1  0  0  0  0
  3  4  1  1  0  0  0
  3  9  1  0  0  0  0
  3 39  1  0  0  0  0
  5 10  1  0  0  0  0
  5 26  1  0  0  0  0
  5 32  1  6  0  0  0
  6 12  1  0  0  0  0
  6 36  1  0  0  0  0
  6 19  1  6  0  0  0
  7  8  1  6  0  0  0
  7 14  1  0  0  0  0
  9 16  1  0  0  0  0
 10 11  1  1  0  0  0
 10 18  1  0  0  0  0
 12 13  1  6  0  0  0
 12 20  1  0  0  0  0
 14 15  1  6  0  0  0
 14 22  1  0  0  0  0
 16 17  1  1  0  0  0
 16 24  1  0  0  0  0
 18 19  1  6  0  0  0
 18 25  1  0  0  0  0
 20 21  1  6  0  0  0
 20 27  1  0  0  0  0
 22 23  1  6  0  0  0
 22 29  1  0  0  0  0
 24  2  1  6  0  0  0
 24 31  1  0  0  0  0
 25 26  1  0  0  0  0
 25 33  1  1  0  0  0
 27 28  1  6  0  0  0
 27 35  1  0  0  0  0
 29 30  1  0  0  0  0
 29 37  1  1  0  0  0
 31 32  1  1  0  0  0
 31 39  1  0  0  0  0
 33 34  1  0  0  0  0
 35 36  1  0  0  0  0
 35 41  1  6  0  0  0
 37 38  1  0  0  0  0
 39 40  1  1  0  0  0
 41 42  1  0  0  0  0
M  END
>  <CHROM.1>
-176.58592263,128.38770056,-75.75718804,143.85966104,-138.34918049,73.59682658
-170.37106569,175.67436638,-56.87319858,37.00865998,41.19984426,-3.37957984
0.79331245,0.86063840,-0.52032911

>  <Name>
3c44_lig

>  <RI>
0

>  <Rbt.Current_Directory>
/home/itssahil/PROJECTS/Mol_Feturizer/New_Systems/rnas/3c44

>  <Rbt.Executable>
rbdock ($Id: //depot/dev/client3/rdock/2013.1/src/exe/rbdock.cxx#4 $)

>  <Rbt.Library>
libRbt.so (2013.1, Build901 2013/11/27)

>  <Rbt.Parameter_File>
/export/apps/rDock/src/rDock_2013.1_src/data/scripts/dock_solv.prm

>  <Rbt.Receptor>
prm/blind_docking_80.prm

>  <SCORE>
28.6329

>  <SCORE.INTER>
19.3303

>  <SCORE.INTER.CONST>
1

>  <SCORE.INTER.POLAR>
-1.37046

>  <SCORE.INTER.ROT>
9

>  <SCORE.INTER.SOLV>
29.2218

>  <SCORE.INTER.VDW>
-1.88551

>  <SCORE.INTER.norm>
0.460246

>  <SCORE.INTRA>
7.11726

>  <SCORE.INTRA.DIHEDRAL>
4.50963

>  <SCORE.INTRA.DIHEDRAL.0>
14.8538

>  <SCORE.INTRA.POLAR>
0

>  <SCORE.INTRA.POLAR.0>
0

>  <SCORE.INTRA.REPUL>
0.341418

>  <SCORE.INTRA.REPUL.0>
0

>  <SCORE.INTRA.SOLV>
1.54272

>  <SCORE.INTRA.SOLV.lig_0>
-100.951

>  <SCORE.INTRA.VDW>
2.38399

>  <SCORE.INTRA.VDW.0>
-5.71388

>  <SCORE.INTRA.norm>
0.169458

>  <SCORE.RESTR>
2.18532

>  <SCORE.RESTR.CAVITY>
2.18532

>  <SCORE.RESTR.norm>
0.0520315

>  <SCORE.SYSTEM>
0

>  <SCORE.SYSTEM.CONST>
0

>  <SCORE.SYSTEM.DIHEDRAL>
0

>  <SCORE.SYSTEM.SOLV>
0

>  <SCORE.SYSTEM.norm>
0

>  <SCORE.heavy>
42

>  <SCORE.norm>
0.681736

>  <RMSD>
13.739

$$$$
3c44_lig
 OpenBabel11021811463D
libRbt.so/2013.1/901 2013/11/27
 42 45  0  0  0  0  0  0  0  0999 V2000
   37.6566   43.6795   -7.0713 C   0  0  2  0  0  0  0  0  0  0  0  0
   38.9488   43.4566   -6.4864 O   0  0  0  0  0  0  0  0  0  0  0  0
   38.0706   39.4401   -5.9515 C   0  0  2  0  0  0  0  0  0  0  0  0
   37.9157   38.0165   -5.6150 N   0  0  0  0  0  0  0  0  0  0  0  0
   36.3589   42.2366   -3.2192 C   0  0  1  0  0  0  0  0  0  0  0  0
   35.2738   40.5672    0.1193 C   0  0  1  0  0  0  0  0  0  0  0  0
   37.7554   43.4955   -8.5893 C   0  0  2  0  0  0  0  0  0  0  0  0
   38.3248   42.1816   -8.9218 N   0  0  0  0  0  0  0  0  0  0  0  0
   39.5130   39.7423   -6.3680 C   0  0  0  0  0  0  0  0  0  0  0  0
   36.6259   42.6147   -1.7616 C   0  0  2  0  0  0  0  0  0  0  0  0
   37.4253   41.6096   -1.1350 O   0  0  0  0  0  0  0  0  0  0  0  0
   35.6579   39.1066   -0.1393 C   0  0  2  0  0  0  0  0  0  0  0  0
   34.4977   38.4212   -0.7253 N   0  0  0  0  0  0  0  0  0  0  0  0
   38.6154   44.5889   -9.2278 C   0  0  1  0  0  0  0  0  0  0  0  0
   38.5486   44.4694  -10.6521 O   0  0  0  0  0  0  0  0  0  0  0  0
   39.5643   41.1956   -6.8510 C   0  0  2  0  0  0  0  0  0  0  0  0
   40.9495   41.5426   -7.2028 N   0  0  0  0  0  0  0  0  0  0  0  0
   35.2045   42.5286   -1.2092 C   0  0  2  0  0  0  0  0  0  0  0  0
   34.7821   41.1597   -1.0957 O   0  0  0  0  0  0  0  0  0  0  0  0
   36.0465   38.3970    1.1643 C   0  0  1  0  0  0  0  0  0  0  0  0
   37.3022   38.8855    1.6434 O   0  0  0  0  0  0  0  0  0  0  0  0
   38.1012   45.9665   -8.8058 C   0  0  2  0  0  0  0  0  0  0  0  0
   38.9719   46.9807   -9.3140 O   0  0  0  0  0  0  0  0  0  0  0  0
   39.0543   42.1944   -5.8047 C   0  0  2  0  0  0  0  0  0  0  0  0
   34.4308   43.2085   -2.3277 C   0  0  2  0  0  0  0  0  0  0  0  0
   35.1613   42.9643   -3.5493 O   0  0  0  0  0  0  0  0  0  0  0  0
   34.9882   38.6173    2.2465 C   0  0  2  0  0  0  0  0  0  0  0  0
   33.7894   37.9358    1.8662 O   0  0  0  0  0  0  0  0  0  0  0  0
   38.0507   46.0485   -7.2794 C   0  0  2  0  0  0  0  0  0  0  0  0
   37.2029   45.0085   -6.7534 O   0  0  0  0  0  0  0  0  0  0  0  0
   37.7164   41.8137   -5.1739 C   0  0  2  0  0  0  0  0  0  0  0  0
   37.4796   42.6425   -4.0242 O   0  0  0  0  0  0  0  0  0  0  0  0
   34.3284   44.7077   -2.0387 C   0  0  0  0  0  0  0  0  0  0  0  0
   35.6253   45.2965   -2.1589 O   0  0  0  0  0  0  0  0  0  0  0  0
   34.7272   40.1191    2.3893 C   0  0  1  0  0  0  0  0  0  0  0  0
   34.2518   40.6199    1.1273 O   0  0  0  0  0  0  0  0  0  0  0  0
   37.4867   47.4220   -6.9067 C   0  0  0  0  0  0  0  0  0  0  0  0
   37.4125   47.5571   -5.4447 O   0  0  0  0  0  0  0  0  0  0  0  0
   37.7037   40.3358   -4.7656 C   0  0  1  0  0  0  0  0  0  0  0  0
   36.4150   39.9791   -4.2606 O   0  0  0  0  0  0  0  0  0  0  0  0
   33.6915   40.4264    3.4716 C   0  0  0  0  0  0  0  0  0  0  0  0
   34.0567   39.7173    4.7058 N   0  0  0  0  0  0  0  0  0  0  0  0
  1  2  1  1  0  0  0
  1  7  1  0  0  0  0
  1 30  1  0  0  0  0
  3  4  1  1  0  0  0
  3  9  1  0  0  0  0
  3 39  1  0  0  0  0
  5 10  1  0  0  0  0
  5 26  1  0  0  0  0
  5 32  1  6  0  0  0
  6 12  1  0  0  0  0
  6 36  1  0  0  0  0
  6 19  1  6  0  0  0
  7  8  1  1  0  0  0
  7 14  1  0  0  0  0
  9 16  1  0  0  0  0
 10 11  1  1  0  0  0
 10 18  1  0  0  0  0
 12 13  1  1  0  0  0
 12 20  1  0  0  0  0
 14 15  1  6  0  0  0
 14 22  1  0  0  0  0
 16 17  1  1  0  0  0
 16 24  1  0  0  0  0
 18 19  1  6  0  0  0
 18 25  1  0  0  0  0
 20 21  1  1  0  0  0
 20 27  1  0  0  0  0
 22 23  1  1  0  0  0
 22 29  1  0  0  0  0
 24  2  1  6  0  0  0
 24 31  1  0  0  0  0
 25 26  1  0  0  0  0
 25 33  1  1  0  0  0
 27 28  1  6  0  0  0
 27 35  1  0  0  0  0
 29 30  1  0  0  0  0
 29 37  1  6  0  0  0
 31 32  1  1  0  0  0
 31 39  1  0  0  0  0
 33 34  1  0  0  0  0
 35 36  1  0  0  0  0
 35 41  1  1  0  0  0
 37 38  1  0  0  0  0
 39 40  1  6  0  0  0
 41 42  1  0  0  0  0
M  END
>  <CHROM.1>
-105.37704430,149.45849081,-142.82168361,82.29007049,90.95980887,68.63976936
179.89316117,-170.40014893,49.98332235,36.79161375,42.10635193,-3.61399930
0.87452765,1.05049016,-0.48012732

>  <Name>
3c44_lig

>  <RI>
0

>  <Rbt.Current_Directory>
/home/itssahil/PROJECTS/Mol_Feturizer/New_Systems/rnas/3c44

>  <Rbt.Executable>
rbdock ($Id: //depot/dev/client3/rdock/2013.1/src/exe/rbdock.cxx#4 $)

>  <Rbt.Library>
libRbt.so (2013.1, Build901 2013/11/27)

>  <Rbt.Parameter_File>
/export/apps/rDock/src/rDock_2013.1_src/data/scripts/dock_solv.prm

>  <Rbt.Receptor>
prm/blind_docking_80.prm

>  <SCORE>
-3.84122

>  <SCORE.INTER>
-19.4836

>  <SCORE.INTER.CONST>
1

>  <SCORE.INTER.POLAR>
-1.7472

>  <SCORE.INTER.ROT>
9

>  <SCORE.INTER.SOLV>
23.7524

>  <SCORE.INTER.VDW>
-24.6826

>  <SCORE.INTER.norm>
-0.463895

>  <SCORE.INTRA>
12.3373

>  <SCORE.INTRA.DIHEDRAL>
7.13319

>  <SCORE.INTRA.DIHEDRAL.0>
14.8538

>  <SCORE.INTRA.POLAR>
0

>  <SCORE.INTRA.POLAR.0>
0

>  <SCORE.INTRA.REPUL>
0.0280811

>  <SCORE.INTRA.REPUL.0>
0

>  <SCORE.INTRA.SOLV>
0.571751

>  <SCORE.INTRA.SOLV.lig_0>
-100.951

>  <SCORE.INTRA.VDW>
8.34446

>  <SCORE.INTRA.VDW.0>
-5.71388

>  <SCORE.INTRA.norm>
0.293746

>  <SCORE.RESTR>
3.30505

>  <SCORE.RESTR.CAVITY>
3.30505

>  <SCORE.RESTR.norm>
0.0786916

>  <SCORE.SYSTEM>
0

>  <SCORE.SYSTEM.CONST>
0

>  <SCORE.SYSTEM.DIHEDRAL>
0

>  <SCORE.SYSTEM.SOLV>
0

>  <SCORE.SYSTEM.norm>
0

>  <SCORE.heavy>
42

>  <SCORE.norm>
-0.0914577

>  <RMSD>
13.786

$$$$
3c44_lig
 OpenBabel11021811463D
libRbt.so/2013.1/901 2013/11/27
 42 45  0  0  0  0  0  0  0  0999 V2000
   37.9858   43.9465   -5.7530 C   0  0  2  0  0  0  0  0  0  0  0  0
   36.8734   43.2080   -6.2811 O   0  0  0  0  0  0  0  0  0  0  0  0
   36.0206   39.4371   -7.7787 C   0  0  2  0  0  0  0  0  0  0  0  0
   35.9298   38.0801   -8.3392 N   0  0  0  0  0  0  0  0  0  0  0  0
   36.7637   40.5816   -3.3856 C   0  0  1  0  0  0  0  0  0  0  0  0
   35.6858   39.2969    0.5339 C   0  0  1  0  0  0  0  0  0  0  0  0
   37.4648   45.2112   -5.0624 C   0  0  2  0  0  0  0  0  0  0  0  0
   36.4555   44.8760   -4.0474 N   0  0  0  0  0  0  0  0  0  0  0  0
   36.7522   40.3725   -8.7456 C   0  0  0  0  0  0  0  0  0  0  0  0
   37.7343   40.5110   -2.2057 C   0  0  2  0  0  0  0  0  0  0  0  0
   38.3020   39.2027   -2.1181 O   0  0  0  0  0  0  0  0  0  0  0  0
   34.9535   37.9628    0.7117 C   0  0  2  0  0  0  0  0  0  0  0  0
   33.7590   37.9745   -0.1440 N   0  0  0  0  0  0  0  0  0  0  0  0
   36.8533   46.1854   -6.0724 C   0  0  1  0  0  0  0  0  0  0  0  0
   36.5275   47.4101   -5.4081 O   0  0  0  0  0  0  0  0  0  0  0  0
   36.6724   41.7913   -8.1722 C   0  0  2  0  0  0  0  0  0  0  0  0
   37.4185   42.7110   -9.0443 N   0  0  0  0  0  0  0  0  0  0  0  0
   36.7507   40.6991   -1.0524 C   0  0  2  0  0  0  0  0  0  0  0  0
   35.9542   39.5183   -0.8618 O   0  0  0  0  0  0  0  0  0  0  0  0
   34.5175   37.7602    2.1687 C   0  0  1  0  0  0  0  0  0  0  0  0
   35.6544   37.5131    3.0002 O   0  0  0  0  0  0  0  0  0  0  0  0
   37.8535   46.4638   -7.1960 C   0  0  2  0  0  0  0  0  0  0  0  0
   37.2400   47.2856   -8.1926 O   0  0  0  0  0  0  0  0  0  0  0  0
   37.2324   41.8958   -6.7481 C   0  0  2  0  0  0  0  0  0  0  0  0
   35.8808   41.8150   -1.6091 C   0  0  2  0  0  0  0  0  0  0  0  0
   35.8888   41.6734   -3.0462 O   0  0  0  0  0  0  0  0  0  0  0  0
   33.7799   38.9913    2.6979 C   0  0  2  0  0  0  0  0  0  0  0  0
   32.5301   39.1113    2.0125 O   0  0  0  0  0  0  0  0  0  0  0  0
   38.3008   45.1421   -7.8224 C   0  0  2  0  0  0  0  0  0  0  0  0
   38.8897   44.2908   -6.8195 O   0  0  0  0  0  0  0  0  0  0  0  0
   36.7127   40.8261   -5.7898 C   0  0  2  0  0  0  0  0  0  0  0  0
   37.5055   40.8354   -4.5914 O   0  0  0  0  0  0  0  0  0  0  0  0
   36.4559   43.1687   -1.1869 C   0  0  0  0  0  0  0  0  0  0  0  0
   35.5156   44.1964   -1.5073 O   0  0  0  0  0  0  0  0  0  0  0  0
   34.6439   40.2317    2.4556 C   0  0  1  0  0  0  0  0  0  0  0  0
   34.8656   40.3619    1.0402 O   0  0  0  0  0  0  0  0  0  0  0  0
   39.3333   45.4672   -8.9048 C   0  0  0  0  0  0  0  0  0  0  0  0
   38.6981   46.2151   -9.9995 O   0  0  0  0  0  0  0  0  0  0  0  0
   36.7614   39.4379   -6.4391 C   0  0  1  0  0  0  0  0  0  0  0  0
   36.1890   38.4667   -5.5604 O   0  0  0  0  0  0  0  0  0  0  0  0
   33.9836   41.5082    2.9779 C   0  0  0  0  0  0  0  0  0  0  0  0
   33.9953   41.4925    4.4474 N   0  0  0  0  0  0  0  0  0  0  0  0
  1  2  1  6  0  0  0
  1  7  1  0  0  0  0
  1 30  1  0  0  0  0
  3  4  1  6  0  0  0
  3  9  1  0  0  0  0
  3 39  1  0  0  0  0
  5 10  1  0  0  0  0
  5 26  1  0  0  0  0
  5 32  1  6  0  0  0
  6 12  1  0  0  0  0
  6 36  1  0  0  0  0
  6 19  1  6  0  0  0
  7  8  1  1  0  0  0
  7 14  1  0  0  0  0
  9 16  1  0  0  0  0
 10 11  1  1  0  0  0
 10 18  1  0  0  0  0
 12 13  1  6  0  0  0
 12 20  1  0  0  0  0
 14 15  1  1  0  0  0
 14 22  1  0  0  0  0
 16 17  1  6  0  0  0
 16 24  1  0  0  0  0
 18 19  1  6  0  0  0
 18 25  1  0  0  0  0
 20 21  1  1  0  0  0
 20 27  1  0  0  0  0
 22 23  1  6  0  0  0
 22 29  1  0  0  0  0
 24  2  1  1  0  0  0
 24 31  1  0  0  0  0
 25 26  1  0  0  0  0
 25 33  1  6  0  0  0
 27 28  1  6  0  0  0
 27 35  1  0  0  0  0
 29 30  1  0  0  0  0
 29 37  1  6  0  0  0
 31 32  1  1  0  0  0
 31 39  1  0  0  0  0
 33 34  1  0  0  0  0
 35 36  1  0  0  0  0
 35 41  1  6  0  0  0
 37 38  1  0  0  0  0
 39 40  1  1  0  0  0
 41 42  1  0  0  0  0
M  END
>  <CHROM.1>
-170.02815360,175.63529243,-174.56221438,144.05432455,-128.61841575,-169.88363034
-65.92466768,143.22957814,70.82943550,36.36636363,41.76569780,-3.51747326
0.06942736,1.29821357,0.41373870

>  <Name>
3c44_lig

>  <RI>
0

>  <Rbt.Current_Directory>
/home/itssahil/PROJECTS/Mol_Feturizer/New_Systems/rnas/3c44

>  <Rbt.Executable>
rbdock ($Id: //depot/dev/client3/rdock/2013.1/src/exe/rbdock.cxx#4 $)

>  <Rbt.Library>
libRbt.so (2013.1, Build901 2013/11/27)

>  <Rbt.Parameter_File>
/export/apps/rDock/src/rDock_2013.1_src/data/scripts/dock_solv.prm

>  <Rbt.Receptor>
prm/blind_docking_80.prm

>  <SCORE>
-6.73514

>  <SCORE.INTER>
-14.0639

>  <SCORE.INTER.CONST>
1

>  <SCORE.INTER.POLAR>
-0.975962

>  <SCORE.INTER.ROT>
9

>  <SCORE.INTER.SOLV>
28.0662

>  <SCORE.INTER.VDW>
-25.0781

>  <SCORE.INTER.norm>
-0.334855

>  <SCORE.INTRA>
2.45382

>  <SCORE.INTRA.DIHEDRAL>
3.10735

>  <SCORE.INTRA.DIHEDRAL.0>
14.8538

>  <SCORE.INTRA.POLAR>
0

>  <SCORE.INTRA.POLAR.0>
0

>  <SCORE.INTRA.REPUL>
0.022353

>  <SCORE.INTRA.REPUL.0>
0

>  <SCORE.INTRA.SOLV>
0.410125

>  <SCORE.INTRA.SOLV.lig_0>
-100.951

>  <SCORE.INTRA.VDW>
0.583314

>  <SCORE.INTRA.VDW.0>
-5.71388

>  <SCORE.INTRA.norm>
0.0584242

>  <SCORE.RESTR>
4.87496

>  <SCORE.RESTR.CAVITY>
4.87496

>  <SCORE.RESTR.norm>
0.116071

>  <SCORE.SYSTEM>
0

>  <SCORE.SYSTEM.CONST>
0

>  <SCORE.SYSTEM.DIHEDRAL>
0

>  <SCORE.SYSTEM.SOLV>
0

>  <SCORE.SYSTEM.norm>
0

>  <SCORE.heavy>
42

>  <SCORE.norm>
-0.16036

>  <RMSD>
13.817

$$$$
3c44_lig
 OpenBabel11021811463D
libRbt.so/2013.1/901 2013/11/27
 42 45  0  0  0  0  0  0  0  0999 V2000
   38.3076   44.0543   -6.2367 C   0  0  2  0  0  0  0  0  0  0  0  0
   37.1540   43.2167   -6.4084 O   0  0  0  0  0  0  0  0  0  0  0  0
   36.2383   39.3828   -7.6937 C   0  0  2  0  0  0  0  0  0  0  0  0
   36.1257   37.9916   -8.1584 N   0  0  0  0  0  0  0  0  0  0  0  0
   36.6799   40.7135   -3.3528 C   0  0  1  0  0  0  0  0  0  0  0  0
   34.9275   39.7186    0.3422 C   0  0  1  0  0  0  0  0  0  0  0  0
   37.9491   45.2152   -5.3031 C   0  0  2  0  0  0  0  0  0  0  0  0
   37.3991   44.7166   -4.0343 N   0  0  0  0  0  0  0  0  0  0  0  0
   37.0977   40.2058   -8.6577 C   0  0  0  0  0  0  0  0  0  0  0  0
   37.5498   40.6883   -2.0951 C   0  0  2  0  0  0  0  0  0  0  0  0
   38.1333   39.3944   -1.9309 O   0  0  0  0  0  0  0  0  0  0  0  0
   35.8746   39.5580    1.5360 C   0  0  2  0  0  0  0  0  0  0  0  0
   36.6630   38.3339    1.3382 N   0  0  0  0  0  0  0  0  0  0  0  0
   36.9329   46.1581   -5.9521 C   0  0  1  0  0  0  0  0  0  0  0  0
   36.7506   47.3034   -5.1140 O   0  0  0  0  0  0  0  0  0  0  0  0
   37.0428   41.6672   -8.2002 C   0  0  2  0  0  0  0  0  0  0  0  0
   37.9077   42.4813   -9.0675 N   0  0  0  0  0  0  0  0  0  0  0  0
   36.4700   40.8800   -1.0320 C   0  0  2  0  0  0  0  0  0  0  0  0
   35.6831   39.6870   -0.8814 O   0  0  0  0  0  0  0  0  0  0  0  0
   35.0929   39.4372    2.8507 C   0  0  1  0  0  0  0  0  0  0  0  0
   34.4973   40.6910    3.1943 O   0  0  0  0  0  0  0  0  0  0  0  0
   37.4414   46.6045   -7.3241 C   0  0  2  0  0  0  0  0  0  0  0  0
   36.4421   47.3955   -7.9728 O   0  0  0  0  0  0  0  0  0  0  0  0
   37.4831   41.8572   -6.7433 C   0  0  2  0  0  0  0  0  0  0  0  0
   35.6284   41.9654   -1.6844 C   0  0  2  0  0  0  0  0  0  0  0  0
   35.7590   41.7936   -3.1123 O   0  0  0  0  0  0  0  0  0  0  0  0
   33.9899   38.3833    2.7394 C   0  0  2  0  0  0  0  0  0  0  0  0
   34.5946   37.0927    2.6167 O   0  0  0  0  0  0  0  0  0  0  0  0
   37.7592   45.3754   -8.1770 C   0  0  2  0  0  0  0  0  0  0  0  0
   38.7405   44.5521   -7.5165 O   0  0  0  0  0  0  0  0  0  0  0  0
   36.8284   40.8903   -5.7589 C   0  0  2  0  0  0  0  0  0  0  0  0
   37.5148   40.9573   -4.4983 O   0  0  0  0  0  0  0  0  0  0  0  0
   36.1401   43.3395   -1.2469 C   0  0  0  0  0  0  0  0  0  0  0  0
   35.2682   44.3485   -1.7614 O   0  0  0  0  0  0  0  0  0  0  0  0
   33.1303   38.6901    1.5103 C   0  0  1  0  0  0  0  0  0  0  0  0
   33.9719   38.6461    0.3445 O   0  0  0  0  0  0  0  0  0  0  0  0
   38.3080   45.8699   -9.5178 C   0  0  0  0  0  0  0  0  0  0  0  0
   39.6869   46.3516   -9.3517 O   0  0  0  0  0  0  0  0  0  0  0  0
   36.8605   39.4548   -6.2970 C   0  0  1  0  0  0  0  0  0  0  0  0
   36.1652   38.5821   -5.4037 O   0  0  0  0  0  0  0  0  0  0  0  0
   31.9865   37.6896    1.3395 C   0  0  0  0  0  0  0  0  0  0  0  0
   32.5234   36.3237    1.4138 N   0  0  0  0  0  0  0  0  0  0  0  0
  1  2  1  6  0  0  0
  1  7  1  0  0  0  0
  1 30  1  0  0  0  0
  3  4  1  6  0  0  0
  3  9  1  0  0  0  0
  3 39  1  0  0  0  0
  5 10  1  0  0  0  0
  5 26  1  0  0  0  0
  5 32  1  6  0  0  0
  6 12  1  0  0  0  0
  6 36  1  0  0  0  0
  6 19  1  6  0  0  0
  7  8  1  1  0  0  0
  7 14  1  0  0  0  0
  9 16  1  0  0  0  0
 10 11  1  1  0  0  0
 10 18  1  0  0  0  0
 12 13  1  6  0  0  0
 12 20  1  0  0  0  0
 14 15  1  1  0  0  0
 14 22  1  0  0  0  0
 16 17  1  6  0  0  0
 16 24  1  0  0  0  0
 18 19  1  6  0  0  0
 18 25  1  0  0  0  0
 20 21  1  6  0  0  0
 20 27  1  0  0  0  0
 22 23  1  6  0  0  0
 22 29  1  0  0  0  0
 24  2  1  1  0  0  0
 24 31  1  0  0  0  0
 25 26  1  0  0  0  0
 25 33  1  6  0  0  0
 27 28  1  6  0  0  0
 27 35  1  0  0  0  0
 29 30  1  0  0  0  0
 29 37  1  6  0  0  0
 31 32  1  1  0  0  0
 31 39  1  0  0  0  0
 33 34  1  0  0  0  0
 35 36  1  0  0  0  0
 35 41  1  6  0  0  0
 37 38  1  0  0  0  0
 39 40  1  1  0  0  0
 41 42  1  0  0  0  0
M  END
>  <CHROM.1>
-154.31283053,174.92780979,-70.73178420,163.99808525,-110.45012257,-174.57641155
74.74316692,148.50421799,-50.43945559,36.35224942,41.63567110,-3.59533958
0.04164715,1.27977698,0.53174844

>  <Name>
3c44_lig

>  <RI>
0

>  <Rbt.Current_Directory>
/home/itssahil/PROJECTS/Mol_Feturizer/New_Systems/rnas/3c44

>  <Rbt.Executable>
rbdock ($Id: //depot/dev/client3/rdock/2013.1/src/exe/rbdock.cxx#4 $)

>  <Rbt.Library>
libRbt.so (2013.1, Build901 2013/11/27)

>  <Rbt.Parameter_File>
/export/apps/rDock/src/rDock_2013.1_src/data/scripts/dock_solv.prm

>  <Rbt.Receptor>
prm/blind_docking_100.prm

>  <SCORE>
-4.74577

>  <SCORE.INTER>
-13.4521

>  <SCORE.INTER.CONST>
1

>  <SCORE.INTER.POLAR>
-0.952252

>  <SCORE.INTER.ROT>
9

>  <SCORE.INTER.SOLV>
26.7765

>  <SCORE.INTER.VDW>
-24.3194

>  <SCORE.INTER.norm>
-0.320288

>  <SCORE.INTRA>
3.78356

>  <SCORE.INTRA.DIHEDRAL>
1.89995

>  <SCORE.INTRA.DIHEDRAL.0>
14.8538

>  <SCORE.INTRA.POLAR>
0

>  <SCORE.INTRA.POLAR.0>
0

>  <SCORE.INTRA.REPUL>
0

>  <SCORE.INTRA.REPUL.0>
0

>  <SCORE.INTRA.SOLV>
3.00635

>  <SCORE.INTRA.SOLV.lig_0>
-100.951

>  <SCORE.INTRA.VDW>
1.33041

>  <SCORE.INTRA.VDW.0>
-5.71388

>  <SCORE.INTRA.norm>
0.0900847

>  <SCORE.RESTR>
4.92277

>  <SCORE.RESTR.CAVITY>
4.92277

>  <SCORE.RESTR.norm>
0.117209

>  <SCORE.SYSTEM>
0

>  <SCORE.SYSTEM.CONST>
0

>  <SCORE.SYSTEM.DIHEDRAL>
0

>  <SCORE.SYSTEM.SOLV>
0

>  <SCORE.SYSTEM.norm>
0

>  <SCORE.heavy>
42

>  <SCORE.norm>
-0.112995

>  <RMSD>
13.844

$$$$
3c44_lig
 OpenBabel11021811463D
libRbt.so/2013.1/901 2013/11/27
 42 45  0  0  0  0  0  0  0  0999 V2000
   37.7478   44.2327   -7.2873 C   0  0  2  0  0  0  0  0  0  0  0  0
   39.0256   44.0339   -6.6633 O   0  0  0  0  0  0  0  0  0  0  0  0
   38.3742   39.9495   -6.9515 C   0  0  2  0  0  0  0  0  0  0  0  0
   38.3224   38.4795   -6.9375 N   0  0  0  0  0  0  0  0  0  0  0  0
   36.9362   42.0741   -3.4672 C   0  0  1  0  0  0  0  0  0  0  0  0
   35.5671   40.3661   -0.0154 C   0  0  1  0  0  0  0  0  0  0  0  0
   37.9601   44.8117   -8.6900 C   0  0  2  0  0  0  0  0  0  0  0  0
   38.8647   43.9609   -9.4766 N   0  0  0  0  0  0  0  0  0  0  0  0
   39.7147   40.4369   -7.5089 C   0  0  0  0  0  0  0  0  0  0  0  0
   37.1641   42.4499   -2.0023 C   0  0  2  0  0  0  0  0  0  0  0  0
   38.0422   41.5054   -1.3870 O   0  0  0  0  0  0  0  0  0  0  0  0
   35.5763   38.8339   -0.0002 C   0  0  2  0  0  0  0  0  0  0  0  0
   34.3777   38.3583   -0.7047 N   0  0  0  0  0  0  0  0  0  0  0  0
   38.5361   46.2285   -8.6261 C   0  0  1  0  0  0  0  0  0  0  0  0
   38.5675   46.7843   -9.9443 O   0  0  0  0  0  0  0  0  0  0  0  0
   39.6388   41.9617   -7.6400 C   0  0  2  0  0  0  0  0  0  0  0  0
   40.9326   42.4741   -8.1158 N   0  0  0  0  0  0  0  0  0  0  0  0
   35.7526   42.2360   -1.4596 C   0  0  2  0  0  0  0  0  0  0  0  0
   35.4459   40.8349   -1.3699 O   0  0  0  0  0  0  0  0  0  0  0  0
   35.5541   38.2943    1.4359 C   0  0  1  0  0  0  0  0  0  0  0  0
   36.8065   38.5400    2.0808 O   0  0  0  0  0  0  0  0  0  0  0  0
   37.6641   47.1032   -7.7234 C   0  0  2  0  0  0  0  0  0  0  0  0
   38.2649   48.3927   -7.5784 O   0  0  0  0  0  0  0  0  0  0  0  0
   39.2840   42.6608   -6.3216 C   0  0  2  0  0  0  0  0  0  0  0  0
   34.9295   42.8666   -2.5718 C   0  0  2  0  0  0  0  0  0  0  0  0
   35.6833   42.7041   -3.7928 O   0  0  0  0  0  0  0  0  0  0  0  0
   34.4424   38.9537    2.2538 C   0  0  2  0  0  0  0  0  0  0  0  0
   33.1768   38.5276    1.7412 O   0  0  0  0  0  0  0  0  0  0  0  0
   37.5244   46.4427   -6.3509 C   0  0  2  0  0  0  0  0  0  0  0  0
   36.9516   45.1274   -6.4881 O   0  0  0  0  0  0  0  0  0  0  0  0
   38.0854   42.0559   -5.5936 C   0  0  2  0  0  0  0  0  0  0  0  0
   38.0225   42.5853   -4.2593 O   0  0  0  0  0  0  0  0  0  0  0  0
   34.7004   44.3470   -2.2600 C   0  0  0  0  0  0  0  0  0  0  0  0
   35.9659   44.9977   -2.1257 O   0  0  0  0  0  0  0  0  0  0  0  0
   34.5791   40.4746    2.1443 C   0  0  1  0  0  0  0  0  0  0  0  0
   34.4558   40.8437    0.7594 O   0  0  0  0  0  0  0  0  0  0  0  0
   36.6078   47.3268   -5.5014 C   0  0  0  0  0  0  0  0  0  0  0  0
   36.3849   46.7066   -4.1874 O   0  0  0  0  0  0  0  0  0  0  0  0
   38.1874   40.5268   -5.5461 C   0  0  1  0  0  0  0  0  0  0  0  0
   37.0149   39.9771   -4.9409 O   0  0  0  0  0  0  0  0  0  0  0  0
   33.5124   41.2116    2.9552 C   0  0  0  0  0  0  0  0  0  0  0  0
   33.6278   40.8270    4.3688 N   0  0  0  0  0  0  0  0  0  0  0  0
  1  2  1  1  0  0  0
  1  7  1  0  0  0  0
  1 30  1  0  0  0  0
  3  4  1  1  0  0  0
  3  9  1  0  0  0  0
  3 39  1  0  0  0  0
  5 10  1  0  0  0  0
  5 26  1  0  0  0  0
  5 32  1  6  0  0  0
  6 12  1  0  0  0  0
  6 36  1  0  0  0  0
  6 19  1  6  0  0  0
  7  8  1  6  0  0  0
  7 14  1  0  0  0  0
  9 16  1  0  0  0  0
 10 11  1  1  0  0  0
 10 18  1  0  0  0  0
 12 13  1  6  0  0  0
 12 20  1  0  0  0  0
 14 15  1  6  0  0  0
 14 22  1  0  0  0  0
 16 17  1  1  0  0  0
 16 24  1  0  0  0  0
 18 19  1  6  0  0  0
 18 25  1  0  0  0  0
 20 21  1  1  0  0  0
 20 27  1  0  0  0  0
 22 23  1  1  0  0  0
 22 29  1  0  0  0  0
 24  2  1  6  0  0  0
 24 31  1  0  0  0  0
 25 26  1  0  0  0  0
 25 33  1  1  0  0  0
 27 28  1  6  0  0  0
 27 35  1  0  0  0  0
 29 30  1  0  0  0  0
 29 37  1  1  0  0  0
 31 32  1  1  0  0  0
 31 39  1  0  0  0  0
 33 34  1  0  0  0  0
 35 36  1  0  0  0  0
 35 41  1  1  0  0  0
 37 38  1  0  0  0  0
 39 40  1  6  0  0  0
 41 42  1  0  0  0  0
M  END
>  <CHROM.1>
-119.24255345,166.93565080,-166.18062145,101.55830219,76.10042560,58.30085247
177.31112063,-179.33136320,59.28746749,36.84377557,42.44830032,-3.68915662
0.84147134,1.04655181,-0.40751550

>  <Name>
3c44_lig

>  <RI>
0

>  <Rbt.Current_Directory>
/home/itssahil/PROJECTS/Mol_Feturizer/New_Systems/rnas/3c44

>  <Rbt.Executable>
rbdock ($Id: //depot/dev/client3/rdock/2013.1/src/exe/rbdock.cxx#4 $)

>  <Rbt.Library>
libRbt.so (2013.1, Build901 2013/11/27)

>  <Rbt.Parameter_File>
/export/apps/rDock/src/rDock_2013.1_src/data/scripts/dock_solv.prm

>  <Rbt.Receptor>
prm/blind_docking_80.prm

>  <SCORE>
-4.97494

>  <SCORE.INTER>
-14.1771

>  <SCORE.INTER.CONST>
1

>  <SCORE.INTER.POLAR>
-0.592748

>  <SCORE.INTER.ROT>
9

>  <SCORE.INTER.SOLV>
22.1965

>  <SCORE.INTER.VDW>
-24.4744

>  <SCORE.INTER.norm>
-0.337549

>  <SCORE.INTRA>
6.35091

>  <SCORE.INTRA.DIHEDRAL>
0.905934

>  <SCORE.INTRA.DIHEDRAL.0>
14.8538

>  <SCORE.INTRA.POLAR>
0

>  <SCORE.INTRA.POLAR.0>
0

>  <SCORE.INTRA.REPUL>
0.284327

>  <SCORE.INTRA.REPUL.0>
0

>  <SCORE.INTRA.SOLV>
0.0443962

>  <SCORE.INTRA.SOLV.lig_0>
-100.951

>  <SCORE.INTRA.VDW>
4.45411

>  <SCORE.INTRA.VDW.0>
-5.71388

>  <SCORE.INTRA.norm>
0.151212

>  <SCORE.RESTR>
2.85121

>  <SCORE.RESTR.CAVITY>
2.85121

>  <SCORE.RESTR.norm>
0.0678859

>  <SCORE.SYSTEM>
0

>  <SCORE.SYSTEM.CONST>
0

>  <SCORE.SYSTEM.DIHEDRAL>
0

>  <SCORE.SYSTEM.SOLV>
0

>  <SCORE.SYSTEM.norm>
0

>  <SCORE.heavy>
42

>  <SCORE.norm>
-0.118451

>  <RMSD>
13.928

$$$$
3c44_lig
 OpenBabel11021811463D
libRbt.so/2013.1/901 2013/11/27
 42 45  0  0  0  0  0  0  0  0999 V2000
   37.9563   43.6380   -6.5141 C   0  0  2  0  0  0  0  0  0  0  0  0
   39.3057   43.7275   -6.0314 O   0  0  0  0  0  0  0  0  0  0  0  0
   41.3406   40.4981   -4.4129 C   0  0  2  0  0  0  0  0  0  0  0  0
   41.9691   39.4065   -3.6531 N   0  0  0  0  0  0  0  0  0  0  0  0
   37.1923   41.2570   -4.0688 C   0  0  1  0  0  0  0  0  0  0  0  0
   35.5156   40.5185   -0.3004 C   0  0  1  0  0  0  0  0  0  0  0  0
   37.9504   43.8650   -8.0295 C   0  0  2  0  0  0  0  0  0  0  0  0
   38.8708   42.9366   -8.7019 N   0  0  0  0  0  0  0  0  0  0  0  0
   41.6436   41.8516   -3.7635 C   0  0  0  0  0  0  0  0  0  0  0  0
   37.4561   39.9022   -3.4101 C   0  0  2  0  0  0  0  0  0  0  0  0
   36.4694   38.9564   -3.8266 O   0  0  0  0  0  0  0  0  0  0  0  0
   35.5838   39.1097    0.2982 C   0  0  2  0  0  0  0  0  0  0  0  0
   34.6785   38.2397   -0.4651 N   0  0  0  0  0  0  0  0  0  0  0  0
   38.3463   45.3018   -8.3788 C   0  0  1  0  0  0  0  0  0  0  0  0
   38.1734   45.5098   -9.7839 O   0  0  0  0  0  0  0  0  0  0  0  0
   41.0952   42.9450   -4.6865 C   0  0  2  0  0  0  0  0  0  0  0  0
   41.3134   44.2602   -4.0656 N   0  0  0  0  0  0  0  0  0  0  0  0
   37.1986   40.2717   -1.9506 C   0  0  2  0  0  0  0  0  0  0  0  0
   35.7941   40.4582   -1.7103 O   0  0  0  0  0  0  0  0  0  0  0  0
   35.1470   39.1112    1.7690 C   0  0  1  0  0  0  0  0  0  0  0  0
   36.1314   39.7561    2.5814 O   0  0  0  0  0  0  0  0  0  0  0  0
   37.4669   46.2853   -7.6045 C   0  0  2  0  0  0  0  0  0  0  0  0
   37.9116   47.6223   -7.8487 O   0  0  0  0  0  0  0  0  0  0  0  0
   39.6003   42.7819   -4.9884 C   0  0  2  0  0  0  0  0  0  0  0  0
   37.9102   41.6133   -1.8747 C   0  0  2  0  0  0  0  0  0  0  0  0
   37.8425   42.1972   -3.1937 O   0  0  0  0  0  0  0  0  0  0  0  0
   33.8122   39.8369    1.9452 C   0  0  2  0  0  0  0  0  0  0  0  0
   32.7824   39.0698    1.3151 O   0  0  0  0  0  0  0  0  0  0  0  0
   37.5518   45.9795   -6.1083 C   0  0  2  0  0  0  0  0  0  0  0  0
   37.1387   44.6223   -5.8540 O   0  0  0  0  0  0  0  0  0  0  0  0
   39.1967   41.3720   -5.4148 C   0  0  2  0  0  0  0  0  0  0  0  0
   37.7645   41.2587   -5.3884 O   0  0  0  0  0  0  0  0  0  0  0  0
   39.3622   41.3967   -1.4432 C   0  0  0  0  0  0  0  0  0  0  0  0
   39.9649   42.6651   -1.1772 O   0  0  0  0  0  0  0  0  0  0  0  0
   33.9120   41.2247    1.3065 C   0  0  1  0  0  0  0  0  0  0  0  0
   34.2019   41.0613   -0.0931 O   0  0  0  0  0  0  0  0  0  0  0  0
   36.6217   46.9544   -5.3817 C   0  0  0  0  0  0  0  0  0  0  0  0
   36.3875   46.4968   -4.0045 O   0  0  0  0  0  0  0  0  0  0  0  0
   39.8223   40.3198   -4.4916 C   0  0  1  0  0  0  0  0  0  0  0  0
   39.5054   39.0073   -4.9605 O   0  0  0  0  0  0  0  0  0  0  0  0
   32.6188   42.0265    1.4590 C   0  0  0  0  0  0  0  0  0  0  0  0
   32.5365   43.0215    0.3807 N   0  0  0  0  0  0  0  0  0  0  0  0
  1  2  1  1  0  0  0
  1  7  1  0  0  0  0
  1 30  1  0  0  0  0
  3  4  1  1  0  0  0
  3  9  1  0  0  0  0
  3 39  1  0  0  0  0
  5 10  1  0  0  0  0
  5 26  1  0  0  0  0
  5 32  1  6  0  0  0
  6 12  1  0  0  0  0
  6 36  1  0  0  0  0
  6 19  1  6  0  0  0
  7  8  1  6  0  0  0
  7 14  1  0  0  0  0
  9 16  1  0  0  0  0
 10 11  1  6  0  0  0
 10 18  1  0  0  0  0
 12 13  1  6  0  0  0
 12 20  1  0  0  0  0
 14 15  1  6  0  0  0
 14 22  1  0  0  0  0
 16 17  1  1  0  0  0
 16 24  1  0  0  0  0
 18 19  1  6  0  0  0
 18 25  1  0  0  0  0
 20 21  1  1  0  0  0
 20 27  1  0  0  0  0
 22 23  1  1  0  0  0
 22 29  1  0  0  0  0
 24  2  1  6  0  0  0
 24 31  1  0  0  0  0
 25 26  1  0  0  0  0
 25 33  1  6  0  0  0
 27 28  1  6  0  0  0
 27 35  1  0  0  0  0
 29 30  1  0  0  0  0
 29 37  1  1  0  0  0
 31 32  1  1  0  0  0
 31 39  1  0  0  0  0
 33 34  1  0  0  0  0
 35 36  1  0  0  0  0
 35 41  1  6  0  0  0
 37 38  1  0  0  0  0
 39 40  1  6  0  0  0
 41 42  1  0  0  0  0
M  END
>  <CHROM.1>
-142.21871326,-74.51886659,-75.64946141,167.52072822,175.44594840,-171.26422428
165.31509745,-70.49817811,-154.92399144,37.43278102,42.12004221,-3.39750761
1.06040508,0.55468778,-0.75383536

>  <Name>
3c44_lig

>  <RI>
0

>  <Rbt.Current_Directory>
/home/itssahil/PROJECTS/Mol_Feturizer/New_Systems/rnas/3c44

>  <Rbt.Executable>
rbdock ($Id: //depot/dev/client3/rdock/2013.1/src/exe/rbdock.cxx#4 $)

>  <Rbt.Library>
libRbt.so (2013.1, Build901 2013/11/27)

>  <Rbt.Parameter_File>
/export/apps/rDock/src/rDock_2013.1_src/data/scripts/dock_solv.prm

>  <Rbt.Receptor>
prm/blind_docking_100.prm

>  <SCORE>
2.8937

>  <SCORE.INTER>
-7.05055

>  <SCORE.INTER.CONST>
1

>  <SCORE.INTER.POLAR>
-0.0332055

>  <SCORE.INTER.ROT>
9

>  <SCORE.INTER.SOLV>
27.7562

>  <SCORE.INTER.VDW>
-23.4417

>  <SCORE.INTER.norm>
-0.16787

>  <SCORE.INTRA>
6.32128

>  <SCORE.INTRA.DIHEDRAL>
-2.94199

>  <SCORE.INTRA.DIHEDRAL.0>
14.8538

>  <SCORE.INTRA.POLAR>
0

>  <SCORE.INTRA.POLAR.0>
0

>  <SCORE.INTRA.REPUL>
0

>  <SCORE.INTRA.REPUL.0>
0

>  <SCORE.INTRA.SOLV>
-0.923939

>  <SCORE.INTRA.SOLV.lig_0>
-100.951

>  <SCORE.INTRA.VDW>
8.25424

>  <SCORE.INTRA.VDW.0>
-5.71388

>  <SCORE.INTRA.norm>
0.150507

>  <SCORE.RESTR>
3.62298

>  <SCORE.RESTR.CAVITY>
3.62298

>  <SCORE.RESTR.norm>
0.0862613

>  <SCORE.SYSTEM>
0

>  <SCORE.SYSTEM.CONST>
0

>  <SCORE.SYSTEM.DIHEDRAL>
0

>  <SCORE.SYSTEM.SOLV>
0

>  <SCORE.SYSTEM.norm>
0

>  <SCORE.heavy>
42

>  <SCORE.norm>
0.0688976

>  <RMSD>
13.960

$$$$
3c44_lig
 OpenBabel11021811463D
libRbt.so/2013.1/901 2013/11/27
 42 45  0  0  0  0  0  0  0  0999 V2000
   37.7391   44.1958   -7.1487 C   0  0  2  0  0  0  0  0  0  0  0  0
   39.0557   43.9372   -6.6373 O   0  0  0  0  0  0  0  0  0  0  0  0
   38.2781   39.8769   -6.9507 C   0  0  2  0  0  0  0  0  0  0  0  0
   38.1823   38.4090   -6.9483 N   0  0  0  0  0  0  0  0  0  0  0  0
   37.0519   41.8949   -3.3812 C   0  0  1  0  0  0  0  0  0  0  0  0
   35.7584   39.9008    0.0677 C   0  0  1  0  0  0  0  0  0  0  0  0
   37.8576   44.8465   -8.5309 C   0  0  2  0  0  0  0  0  0  0  0  0
   38.6784   44.0220   -9.4296 N   0  0  0  0  0  0  0  0  0  0  0  0
   39.6248   40.3288   -7.5227 C   0  0  0  0  0  0  0  0  0  0  0  0
   37.4368   42.1293   -1.9197 C   0  0  2  0  0  0  0  0  0  0  0  0
   38.3816   41.1431   -1.4995 O   0  0  0  0  0  0  0  0  0  0  0  0
   35.4343   38.4042    0.0135 C   0  0  2  0  0  0  0  0  0  0  0  0
   34.1959   38.2279   -0.7574 N   0  0  0  0  0  0  0  0  0  0  0  0
   38.4710   46.2457   -8.4368 C   0  0  1  0  0  0  0  0  0  0  0  0
   38.4151   46.8722   -9.7220 O   0  0  0  0  0  0  0  0  0  0  0  0
   39.5929   41.8564   -7.6398 C   0  0  2  0  0  0  0  0  0  0  0  0
   40.8950   42.3340   -8.1293 N   0  0  0  0  0  0  0  0  0  0  0  0
   36.0941   41.8411   -1.2511 C   0  0  2  0  0  0  0  0  0  0  0  0
   35.8062   40.4333   -1.2677 O   0  0  0  0  0  0  0  0  0  0  0  0
   35.2276   37.8311    1.4216 C   0  0  1  0  0  0  0  0  0  0  0  0
   36.4714   37.7736    2.1248 O   0  0  0  0  0  0  0  0  0  0  0  0
   37.6922   47.0869   -7.4238 C   0  0  2  0  0  0  0  0  0  0  0  0
   38.3336   48.3542   -7.2576 O   0  0  0  0  0  0  0  0  0  0  0  0
   39.2774   42.5541   -6.3109 C   0  0  2  0  0  0  0  0  0  0  0  0
   35.1512   42.5643   -2.1998 C   0  0  2  0  0  0  0  0  0  0  0  0
   35.7678   42.5338   -3.5053 O   0  0  0  0  0  0  0  0  0  0  0  0
   34.2478   38.6877    2.2253 C   0  0  2  0  0  0  0  0  0  0  0  0
   32.9457   38.5674    1.6457 O   0  0  0  0  0  0  0  0  0  0  0  0
   37.6419   46.3551   -6.0817 C   0  0  2  0  0  0  0  0  0  0  0  0
   37.0284   45.0611   -6.2437 O   0  0  0  0  0  0  0  0  0  0  0  0
   38.0712   41.9790   -5.5713 C   0  0  2  0  0  0  0  0  0  0  0  0
   38.0425   42.4982   -4.2318 O   0  0  0  0  0  0  0  0  0  0  0  0
   34.9502   44.0034   -1.7201 C   0  0  0  0  0  0  0  0  0  0  0  0
   36.1022   44.7761   -2.0645 O   0  0  0  0  0  0  0  0  0  0  0  0
   34.7161   40.1449    2.1906 C   0  0  1  0  0  0  0  0  0  0  0  0
   34.7416   40.5817    0.8202 O   0  0  0  0  0  0  0  0  0  0  0  0
   36.8147   47.2095   -5.1178 C   0  0  0  0  0  0  0  0  0  0  0  0
   35.4735   47.4416   -5.6733 O   0  0  0  0  0  0  0  0  0  0  0  0
   38.1279   40.4471   -5.5380 C   0  0  1  0  0  0  0  0  0  0  0  0
   36.9478   39.9274   -4.9213 O   0  0  0  0  0  0  0  0  0  0  0  0
   33.7974   41.0675    2.9925 C   0  0  0  0  0  0  0  0  0  0  0  0
   33.8221   40.6655    4.4058 N   0  0  0  0  0  0  0  0  0  0  0  0
  1  2  1  1  0  0  0
  1  7  1  0  0  0  0
  1 30  1  0  0  0  0
  3  4  1  1  0  0  0
  3  9  1  0  0  0  0
  3 39  1  0  0  0  0
  5 10  1  0  0  0  0
  5 26  1  0  0  0  0
  5 32  1  6  0  0  0
  6 12  1  0  0  0  0
  6 36  1  0  0  0  0
  6 19  1  6  0  0  0
  7  8  1  6  0  0  0
  7 14  1  0  0  0  0
  9 16  1  0  0  0  0
 10 11  1  1  0  0  0
 10 18  1  0  0  0  0
 12 13  1  6  0  0  0
 12 20  1  0  0  0  0
 14 15  1  6  0  0  0
 14 22  1  0  0  0  0
 16 17  1  1  0  0  0
 16 24  1  0  0  0  0
 18 19  1  6  0  0  0
 18 25  1  0  0  0  0
 20 21  1  1  0  0  0
 20 27  1  0  0  0  0
 22 23  1  1  0  0  0
 22 29  1  0  0  0  0
 24  2  1  6  0  0  0
 24 31  1  0  0  0  0
 25 26  1  0  0  0  0
 25 33  1  1  0  0  0
 27 28  1  6  0  0  0
 27 35  1  0  0  0  0
 29 30  1  0  0  0  0
 29 37  1  1  0  0  0
 31 32  1  1  0  0  0
 31 39  1  0  0  0  0
 33 34  1  0  0  0  0
 35 36  1  0  0  0  0
 35 41  1  1  0  0  0
 37 38  1  0  0  0  0
 39 40  1  6  0  0  0
 41 42  1  0  0  0  0
M  END
>  <CHROM.1>
-122.93563398,159.48690714,179.36662086,115.66536171,80.50452914,76.93962511
57.48234641,-172.25974230,62.63561443,36.85085967,42.29656821,-3.63176289
-0.87156364,-1.05201507,2.74561188

>  <Name>
3c44_lig

>  <RI>
0

>  <Rbt.Current_Directory>
/home/itssahil/PROJECTS/Mol_Feturizer/New_Systems/rnas/3c44

>  <Rbt.Executable>
rbdock ($Id: //depot/dev/client3/rdock/2013.1/src/exe/rbdock.cxx#4 $)

>  <Rbt.Library>
libRbt.so (2013.1, Build901 2013/11/27)

>  <Rbt.Parameter_File>
/export/apps/rDock/src/rDock_2013.1_src/data/scripts/dock_solv.prm

>  <Rbt.Receptor>
prm/blind_docking_80.prm

>  <SCORE>
-1.11583

>  <SCORE.INTER>
-13.1709

>  <SCORE.INTER.CONST>
1

>  <SCORE.INTER.POLAR>
-0.565763

>  <SCORE.INTER.ROT>
9

>  <SCORE.INTER.SOLV>
22.5545

>  <SCORE.INTER.VDW>
-24.0129

>  <SCORE.INTER.norm>
-0.313592

>  <SCORE.INTRA>
8.84713

>  <SCORE.INTRA.DIHEDRAL>
4.25983

>  <SCORE.INTRA.DIHEDRAL.0>
14.8538

>  <SCORE.INTRA.POLAR>
0

>  <SCORE.INTRA.POLAR.0>
0

>  <SCORE.INTRA.REPUL>
0.296835

>  <SCORE.INTRA.REPUL.0>
0

>  <SCORE.INTRA.SOLV>
-0.6964

>  <SCORE.INTRA.SOLV.lig_0>
-100.951

>  <SCORE.INTRA.VDW>
5.58123

>  <SCORE.INTRA.VDW.0>
-5.71388

>  <SCORE.INTRA.norm>
0.210646

>  <SCORE.RESTR>
3.20791

>  <SCORE.RESTR.CAVITY>
3.20791

>  <SCORE.RESTR.norm>
0.0763788

>  <SCORE.SYSTEM>
0

>  <SCORE.SYSTEM.CONST>
0

>  <SCORE.SYSTEM.DIHEDRAL>
0

>  <SCORE.SYSTEM.SOLV>
0

>  <SCORE.SYSTEM.norm>
0

>  <SCORE.heavy>
42

>  <SCORE.norm>
-0.0265674

>  <RMSD>
13.965

$$$$
3c44_lig
 OpenBabel11021811463D
libRbt.so/2013.1/901 2013/11/27
 42 45  0  0  0  0  0  0  0  0999 V2000
   37.7832   43.9719   -7.0475 C   0  0  2  0  0  0  0  0  0  0  0  0
   39.0735   43.8132   -6.4379 O   0  0  0  0  0  0  0  0  0  0  0  0
   38.6131   39.7272   -6.9683 C   0  0  2  0  0  0  0  0  0  0  0  0
   38.6409   38.2593   -7.0605 N   0  0  0  0  0  0  0  0  0  0  0  0
   37.3745   41.5814   -3.2275 C   0  0  1  0  0  0  0  0  0  0  0  0
   35.8673   39.7119    0.2249 C   0  0  1  0  0  0  0  0  0  0  0  0
   37.9500   44.6801   -8.3960 C   0  0  2  0  0  0  0  0  0  0  0  0
   38.9112   43.9650   -9.2480 N   0  0  0  0  0  0  0  0  0  0  0  0
   39.8611   40.3324   -7.6174 C   0  0  0  0  0  0  0  0  0  0  0  0
   37.7243   41.8392   -1.7612 C   0  0  2  0  0  0  0  0  0  0  0  0
   38.6332   40.8409   -1.2933 O   0  0  0  0  0  0  0  0  0  0  0  0
   35.4050   38.2514    0.1905 C   0  0  2  0  0  0  0  0  0  0  0  0
   34.1977   38.1691   -0.6431 N   0  0  0  0  0  0  0  0  0  0  0  0
   38.4233   46.1240   -8.2117 C   0  0  1  0  0  0  0  0  0  0  0  0
   38.4117   46.7891   -9.4785 O   0  0  0  0  0  0  0  0  0  0  0  0
   39.6914   41.8552   -7.6245 C   0  0  2  0  0  0  0  0  0  0  0  0
   40.9002   42.4768   -8.1862 N   0  0  0  0  0  0  0  0  0  0  0  0
   36.3571   41.5975   -1.1245 C   0  0  2  0  0  0  0  0  0  0  0  0
   36.0361   40.1968   -1.1188 O   0  0  0  0  0  0  0  0  0  0  0  0
   35.0704   37.7432    1.5990 C   0  0  1  0  0  0  0  0  0  0  0  0
   36.2643   37.5902    2.3711 O   0  0  0  0  0  0  0  0  0  0  0  0
   37.4933   46.8554   -7.2419 C   0  0  2  0  0  0  0  0  0  0  0  0
   38.0007   48.1679   -6.9873 O   0  0  0  0  0  0  0  0  0  0  0  0
   39.4382   42.4378   -6.2284 C   0  0  2  0  0  0  0  0  0  0  0  0
   35.4584   42.3212   -2.1148 C   0  0  2  0  0  0  0  0  0  0  0  0
   36.1099   42.2472   -3.4015 O   0  0  0  0  0  0  0  0  0  0  0  0
   34.1361   38.7121    2.3254 C   0  0  2  0  0  0  0  0  0  0  0  0
   32.8607   38.6974    1.6778 O   0  0  0  0  0  0  0  0  0  0  0  0
   37.4047   46.0740   -5.9301 C   0  0  2  0  0  0  0  0  0  0  0  0
   36.9271   44.7372   -6.1790 O   0  0  0  0  0  0  0  0  0  0  0  0
   38.3550   41.7122   -5.4330 C   0  0  2  0  0  0  0  0  0  0  0  0
   38.4023   42.1423   -4.0628 O   0  0  0  0  0  0  0  0  0  0  0  0
   35.2787   43.7749   -1.6723 C   0  0  0  0  0  0  0  0  0  0  0  0
   34.2950   44.3977   -2.5015 O   0  0  0  0  0  0  0  0  0  0  0  0
   34.7427   40.1170    2.2800 C   0  0  1  0  0  0  0  0  0  0  0  0
   34.8820   40.5078    0.9026 O   0  0  0  0  0  0  0  0  0  0  0  0
   36.4293   46.8160   -5.0128 C   0  0  0  0  0  0  0  0  0  0  0  0
   37.0540   48.0438   -4.4998 O   0  0  0  0  0  0  0  0  0  0  0  0
   38.5422   40.1924   -5.5116 C   0  0  1  0  0  0  0  0  0  0  0  0
   37.4693   39.5320   -4.8365 O   0  0  0  0  0  0  0  0  0  0  0  0
   33.8754   41.1459    3.0065 C   0  0  0  0  0  0  0  0  0  0  0  0
   32.7891   41.5779    2.1160 N   0  0  0  0  0  0  0  0  0  0  0  0
  1  2  1  1  0  0  0
  1  7  1  0  0  0  0
  1 30  1  0  0  0  0
  3  4  1  1  0  0  0
  3  9  1  0  0  0  0
  3 39  1  0  0  0  0
  5 10  1  0  0  0  0
  5 26  1  0  0  0  0
  5 32  1  6  0  0  0
  6 12  1  0  0  0  0
  6 36  1  0  0  0  0
  6 19  1  6  0  0  0
  7  8  1  6  0  0  0
  7 14  1  0  0  0  0
  9 16  1  0  0  0  0
 10 11  1  1  0  0  0
 10 18  1  0  0  0  0
 12 13  1  6  0  0  0
 12 20  1  0  0  0  0
 14 15  1  6  0  0  0
 14 22  1  0  0  0  0
 16 17  1  1  0  0  0
 16 24  1  0  0  0  0
 18 19  1  6  0  0  0
 18 25  1  0  0  0  0
 20 21  1  1  0  0  0
 20 27  1  0  0  0  0
 22 23  1  1  0  0  0
 22 29  1  0  0  0  0
 24  2  1  6  0  0  0
 24 31  1  0  0  0  0
 25 26  1  0  0  0  0
 25 33  1  1  0  0  0
 27 28  1  6  0  0  0
 27 35  1  0  0  0  0
 29 30  1  0  0  0  0
 29 37  1  1  0  0  0
 31 32  1  1  0  0  0
 31 39  1  0  0  0  0
 33 34  1  0  0  0  0
 35 36  1  0  0  0  0
 35 41  1  1  0  0  0
 37 38  1  0  0  0  0
 39 40  1  6  0  0  0
 41 42  1  0  0  0  0
M  END
>  <CHROM.1>
-118.43311977,166.59461603,174.99165600,118.79063405,69.88781023,-172.29515279
-73.37108551,176.63036149,-81.46121061,36.91610745,42.17085800,-3.56213207
0.88798978,0.99565493,-0.42742890

>  <Name>
3c44_lig

>  <RI>
0

>  <Rbt.Current_Directory>
/home/itssahil/PROJECTS/Mol_Feturizer/New_Systems/rnas/3c44

>  <Rbt.Executable>
rbdock ($Id: //depot/dev/client3/rdock/2013.1/src/exe/rbdock.cxx#4 $)

>  <Rbt.Library>
libRbt.so (2013.1, Build901 2013/11/27)

>  <Rbt.Parameter_File>
/export/apps/rDock/src/rDock_2013.1_src/data/scripts/dock_solv.prm

>  <Rbt.Receptor>
prm/blind_docking_80.prm

>  <SCORE>
-1.42986

>  <SCORE.INTER>
-12.0222

>  <SCORE.INTER.CONST>
1

>  <SCORE.INTER.POLAR>
-0.386132

>  <SCORE.INTER.ROT>
9

>  <SCORE.INTER.SOLV>
21.6445

>  <SCORE.INTER.VDW>
-23.5425

>  <SCORE.INTER.norm>
-0.286242

>  <SCORE.INTRA>
7.96402

>  <SCORE.INTRA.DIHEDRAL>
3.18208

>  <SCORE.INTRA.DIHEDRAL.0>
14.8538

>  <SCORE.INTRA.POLAR>
0

>  <SCORE.INTRA.POLAR.0>
0

>  <SCORE.INTRA.REPUL>
0.336245

>  <SCORE.INTRA.REPUL.0>
0

>  <SCORE.INTRA.SOLV>
0.778035

>  <SCORE.INTRA.SOLV.lig_0>
-100.951

>  <SCORE.INTRA.VDW>
4.30274

>  <SCORE.INTRA.VDW.0>
-5.71388

>  <SCORE.INTRA.norm>
0.18962

>  <SCORE.RESTR>
2.6283

>  <SCORE.RESTR.CAVITY>
2.6283

>  <SCORE.RESTR.norm>
0.0625786

>  <SCORE.SYSTEM>
0

>  <SCORE.SYSTEM.CONST>
0

>  <SCORE.SYSTEM.DIHEDRAL>
0

>  <SCORE.SYSTEM.SOLV>
0

>  <SCORE.SYSTEM.norm>
0

>  <SCORE.heavy>
42

>  <SCORE.norm>
-0.0340444

>  <RMSD>
13.969

$$$$
3c44_lig
 OpenBabel11021811463D
libRbt.so/2013.1/901 2013/11/27
 42 45  0  0  0  0  0  0  0  0999 V2000
   37.6456   44.1473   -6.9727 C   0  0  2  0  0  0  0  0  0  0  0  0
   39.0060   43.8882   -6.5935 O   0  0  0  0  0  0  0  0  0  0  0  0
   38.2857   39.8434   -7.1505 C   0  0  2  0  0  0  0  0  0  0  0  0
   38.2205   38.3774   -7.2538 N   0  0  0  0  0  0  0  0  0  0  0  0
   37.2473   41.6722   -3.3676 C   0  0  1  0  0  0  0  0  0  0  0  0
   35.8181   39.8103    0.1258 C   0  0  1  0  0  0  0  0  0  0  0  0
   37.6022   45.3950   -7.8611 C   0  0  2  0  0  0  0  0  0  0  0  0
   38.5084   45.2521   -9.0098 N   0  0  0  0  0  0  0  0  0  0  0  0
   39.5639   40.3743   -7.8058 C   0  0  0  0  0  0  0  0  0  0  0  0
   37.6175   41.9492   -1.9098 C   0  0  2  0  0  0  0  0  0  0  0  0
   38.5519   40.9712   -1.4491 O   0  0  0  0  0  0  0  0  0  0  0  0
   35.5387   38.3038    0.1149 C   0  0  2  0  0  0  0  0  0  0  0  0
   34.3782   38.0560   -0.7516 N   0  0  0  0  0  0  0  0  0  0  0  0
   37.9858   46.6515   -7.0754 C   0  0  1  0  0  0  0  0  0  0  0  0
   37.7783   47.8035   -7.8983 O   0  0  0  0  0  0  0  0  0  0  0  0
   39.4901   41.9048   -7.8001 C   0  0  2  0  0  0  0  0  0  0  0  0
   40.7309   42.4538   -8.3675 N   0  0  0  0  0  0  0  0  0  0  0  0
   36.2660   41.6891   -1.2475 C   0  0  2  0  0  0  0  0  0  0  0  0
   35.9700   40.2831   -1.2242 O   0  0  0  0  0  0  0  0  0  0  0  0
   35.2231   37.7889    1.5254 C   0  0  1  0  0  0  0  0  0  0  0  0
   36.4011   37.8003    2.3361 O   0  0  0  0  0  0  0  0  0  0  0  0
   37.1230   46.7602   -5.8168 C   0  0  2  0  0  0  0  0  0  0  0  0
   37.5582   47.8727   -5.0307 O   0  0  0  0  0  0  0  0  0  0  0  0
   39.2853   42.4909   -6.3975 C   0  0  2  0  0  0  0  0  0  0  0  0
   35.3378   42.3880   -2.2283 C   0  0  2  0  0  0  0  0  0  0  0  0
   35.9683   42.3141   -3.5253 O   0  0  0  0  0  0  0  0  0  0  0  0
   34.1545   38.6514    2.1990 C   0  0  2  0  0  0  0  0  0  0  0  0
   32.9122   38.4664    1.5146 O   0  0  0  0  0  0  0  0  0  0  0  0
   37.2449   45.4731   -4.9997 C   0  0  2  0  0  0  0  0  0  0  0  0
   36.8417   44.3400   -5.7938 O   0  0  0  0  0  0  0  0  0  0  0  0
   38.1651   41.8284   -5.5982 C   0  0  2  0  0  0  0  0  0  0  0  0
   38.2505   42.2436   -4.2253 O   0  0  0  0  0  0  0  0  0  0  0  0
   35.1399   43.8423   -1.7952 C   0  0  0  0  0  0  0  0  0  0  0  0
   36.3048   44.2839   -1.0946 O   0  0  0  0  0  0  0  0  0  0  0  0
   34.5865   40.1188    2.1358 C   0  0  1  0  0  0  0  0  0  0  0  0
   34.7217   40.4938    0.7536 O   0  0  0  0  0  0  0  0  0  0  0  0
   36.3303   45.6092   -3.7797 C   0  0  0  0  0  0  0  0  0  0  0  0
   35.5867   46.8756   -3.8455 O   0  0  0  0  0  0  0  0  0  0  0  0
   38.2559   40.3005   -5.6898 C   0  0  1  0  0  0  0  0  0  0  0  0
   37.1492   39.7033   -5.0105 O   0  0  0  0  0  0  0  0  0  0  0  0
   33.5771   41.0490    2.8099 C   0  0  0  0  0  0  0  0  0  0  0  0
   34.2709   42.2558    3.2809 N   0  0  0  0  0  0  0  0  0  0  0  0
  1  2  1  1  0  0  0
  1  7  1  0  0  0  0
  1 30  1  0  0  0  0
  3  4  1  1  0  0  0
  3  9  1  0  0  0  0
  3 39  1  0  0  0  0
  5 10  1  0  0  0  0
  5 26  1  0  0  0  0
  5 32  1  6  0  0  0
  6 12  1  0  0  0  0
  6 36  1  0  0  0  0
  6 19  1  6  0  0  0
  7  8  1  6  0  0  0
  7 14  1  0  0  0  0
  9 16  1  0  0  0  0
 10 11  1  1  0  0  0
 10 18  1  0  0  0  0
 12 13  1  6  0  0  0
 12 20  1  0  0  0  0
 14 15  1  6  0  0  0
 14 22  1  0  0  0  0
 16 17  1  1  0  0  0
 16 24  1  0  0  0  0
 18 19  1  6  0  0  0
 18 25  1  0  0  0  0
 20 21  1  1  0  0  0
 20 27  1  0  0  0  0
 22 23  1  1  0  0  0
 22 29  1  0  0  0  0
 24  2  1  6  0  0  0
 24 31  1  0  0  0  0
 25 26  1  0  0  0  0
 25 33  1  1  0  0  0
 27 28  1  6  0  0  0
 27 35  1  0  0  0  0
 29 30  1  0  0  0  0
 29 37  1  1  0  0  0
 31 32  1  1  0  0  0
 31 39  1  0  0  0  0
 33 34  1  0  0  0  0
 35 36  1  0  0  0  0
 35 41  1  6  0  0  0
 37 38  1  0  0  0  0
 39 40  1  6  0  0  0
 41 42  1  0  0  0  0
M  END
>  <CHROM.1>
-149.28628666,168.18224538,-178.59008114,119.43507203,79.98105865,28.81993945
3.56992446,-179.52034860,153.54594261,36.80980766,42.21492148,-3.34845490
0.78729663,1.08081316,-0.30717558

>  <Name>
3c44_lig

>  <RI>
0

>  <Rbt.Current_Directory>
/home/itssahil/PROJECTS/Mol_Feturizer/New_Systems/rnas/3c44

>  <Rbt.Executable>
rbdock ($Id: //depot/dev/client3/rdock/2013.1/src/exe/rbdock.cxx#4 $)

>  <Rbt.Library>
libRbt.so (2013.1, Build901 2013/11/27)

>  <Rbt.Parameter_File>
/export/apps/rDock/src/rDock_2013.1_src/data/scripts/dock_solv.prm

>  <Rbt.Receptor>
prm/blind_docking_100.prm

>  <SCORE>
9.75899

>  <SCORE.INTER>
-9.73597

>  <SCORE.INTER.CONST>
1

>  <SCORE.INTER.POLAR>
-0.438432

>  <SCORE.INTER.ROT>
9

>  <SCORE.INTER.SOLV>
26.1354

>  <SCORE.INTER.VDW>
-23.341

>  <SCORE.INTER.norm>
-0.231809

>  <SCORE.INTRA>
14.4717

>  <SCORE.INTRA.DIHEDRAL>
8.56145

>  <SCORE.INTRA.DIHEDRAL.0>
14.8538

>  <SCORE.INTRA.POLAR>
0

>  <SCORE.INTRA.POLAR.0>
0

>  <SCORE.INTRA.REPUL>
0.476524

>  <SCORE.INTRA.REPUL.0>
0

>  <SCORE.INTRA.SOLV>
-2.21303

>  <SCORE.INTRA.SOLV.lig_0>
-100.951

>  <SCORE.INTRA.VDW>
8.91485

>  <SCORE.INTRA.VDW.0>
-5.71388

>  <SCORE.INTRA.norm>
0.344564

>  <SCORE.RESTR>
5.02329

>  <SCORE.RESTR.CAVITY>
5.02329

>  <SCORE.RESTR.norm>
0.119602

>  <SCORE.SYSTEM>
0

>  <SCORE.SYSTEM.CONST>
0

>  <SCORE.SYSTEM.DIHEDRAL>
0

>  <SCORE.SYSTEM.SOLV>
0

>  <SCORE.SYSTEM.norm>
0

>  <SCORE.heavy>
42

>  <SCORE.norm>
0.232357

>  <RMSD>
13.994

$$$$
3c44_lig
 OpenBabel11021811463D
libRbt.so/2013.1/901 2013/11/27
 42 45  0  0  0  0  0  0  0  0999 V2000
   37.6420   43.6737   -6.8410 C   0  0  2  0  0  0  0  0  0  0  0  0
   38.9662   43.3832   -6.3679 O   0  0  0  0  0  0  0  0  0  0  0  0
   38.1095   39.3498   -5.9348 C   0  0  2  0  0  0  0  0  0  0  0  0
   37.9593   37.9183   -5.6312 N   0  0  0  0  0  0  0  0  0  0  0  0
   36.5437   41.9094   -3.0140 C   0  0  1  0  0  0  0  0  0  0  0  0
   34.6909   40.0495    0.3168 C   0  0  1  0  0  0  0  0  0  0  0  0
   37.7377   44.3588   -8.2083 C   0  0  2  0  0  0  0  0  0  0  0  0
   38.5251   43.5466   -9.1473 N   0  0  0  0  0  0  0  0  0  0  0  0
   39.5574   39.6716   -6.3159 C   0  0  0  0  0  0  0  0  0  0  0  0
   37.1109   42.0589   -1.6016 C   0  0  2  0  0  0  0  0  0  0  0  0
   38.0487   41.0133   -1.3388 O   0  0  0  0  0  0  0  0  0  0  0  0
   35.5899   39.9232    1.5511 C   0  0  2  0  0  0  0  0  0  0  0  0
   36.6709   38.9779    1.2399 N   0  0  0  0  0  0  0  0  0  0  0  0
   38.3739   45.7462   -8.0925 C   0  0  1  0  0  0  0  0  0  0  0  0
   38.2973   46.4069   -9.3594 O   0  0  0  0  0  0  0  0  0  0  0  0
   39.6068   41.1351   -6.7672 C   0  0  2  0  0  0  0  0  0  0  0  0
   40.9959   41.4998   -7.0839 N   0  0  0  0  0  0  0  0  0  0  0  0
   35.8446   41.8004   -0.7875 C   0  0  2  0  0  0  0  0  0  0  0  0
   35.4871   40.4091   -0.8259 O   0  0  0  0  0  0  0  0  0  0  0  0
   34.8027   39.3963    2.7581 C   0  0  1  0  0  0  0  0  0  0  0  0
   33.8935   40.3920    3.2344 O   0  0  0  0  0  0  0  0  0  0  0  0
   37.6316   46.5715   -7.0399 C   0  0  2  0  0  0  0  0  0  0  0  0
   38.2953   47.8247   -6.8561 O   0  0  0  0  0  0  0  0  0  0  0  0
   39.0681   42.1078   -5.7108 C   0  0  2  0  0  0  0  0  0  0  0  0
   34.8327   42.6077   -1.5852 C   0  0  2  0  0  0  0  0  0  0  0  0
   35.2873   42.6099   -2.9559 O   0  0  0  0  0  0  0  0  0  0  0  0
   34.0090   38.1413    2.3911 C   0  0  2  0  0  0  0  0  0  0  0  0
   34.9258   37.0753    2.1275 O   0  0  0  0  0  0  0  0  0  0  0  0
   37.6018   45.8055   -5.7164 C   0  0  2  0  0  0  0  0  0  0  0  0
   36.9655   44.5250   -5.8972 O   0  0  0  0  0  0  0  0  0  0  0  0
   37.7211   41.7038   -5.1150 C   0  0  2  0  0  0  0  0  0  0  0  0
   37.4548   42.5064   -3.9532 O   0  0  0  0  0  0  0  0  0  0  0  0
   34.7620   44.0308   -1.0272 C   0  0  0  0  0  0  0  0  0  0  0  0
   33.8587   44.8007   -1.8234 O   0  0  0  0  0  0  0  0  0  0  0  0
   33.1591   38.4343    1.1519 C   0  0  1  0  0  0  0  0  0  0  0  0
   34.0388   38.7932    0.0718 O   0  0  0  0  0  0  0  0  0  0  0  0
   36.8101   46.6459   -4.7113 C   0  0  0  0  0  0  0  0  0  0  0  0
   35.6388   47.2453   -5.3668 O   0  0  0  0  0  0  0  0  0  0  0  0
   37.7120   40.2176   -4.7380 C   0  0  1  0  0  0  0  0  0  0  0  0
   36.4164   39.8407   -4.2665 O   0  0  0  0  0  0  0  0  0  0  0  0
   32.3152   37.2306    0.7308 C   0  0  0  0  0  0  0  0  0  0  0  0
   31.3670   36.9050    1.8052 N   0  0  0  0  0  0  0  0  0  0  0  0
  1  2  1  1  0  0  0
  1  7  1  0  0  0  0
  1 30  1  0  0  0  0
  3  4  1  1  0  0  0
  3  9  1  0  0  0  0
  3 39  1  0  0  0  0
  5 10  1  0  0  0  0
  5 26  1  0  0  0  0
  5 32  1  6  0  0  0
  6 12  1  0  0  0  0
  6 36  1  0  0  0  0
  6 19  1  6  0  0  0
  7  8  1  6  0  0  0
  7 14  1  0  0  0  0
  9 16  1  0  0  0  0
 10 11  1  1  0  0  0
 10 18  1  0  0  0  0
 12 13  1  6  0  0  0
 12 20  1  0  0  0  0
 14 15  1  6  0  0  0
 14 22  1  0  0  0  0
 16 17  1  1  0  0  0
 16 24  1  0  0  0  0
 18 19  1  6  0  0  0
 18 25  1  0  0  0  0
 20 21  1  6  0  0  0
 20 27  1  0  0  0  0
 22 23  1  1  0  0  0
 22 29  1  0  0  0  0
 24  2  1  6  0  0  0
 24 31  1  0  0  0  0
 25 26  1  0  0  0  0
 25 33  1  1  0  0  0
 27 28  1  6  0  0  0
 27 35  1  0  0  0  0
 29 30  1  0  0  0  0
 29 37  1  1  0  0  0
 31 32  1  1  0  0  0
 31 39  1  0  0  0  0
 33 34  1  0  0  0  0
 35 36  1  0  0  0  0
 35 41  1  6  0  0  0
 37 38  1  0  0  0  0
 39 40  1  6  0  0  0
 41 42  1  0  0  0  0
M  END
>  <CHROM.1>
-140.56555125,133.95378985,-76.30652288,156.00561922,97.64322122,177.15942492
40.69210128,-156.23810129,62.72160193,36.51246946,41.89943984,-3.24621449
-0.88960322,-0.95256421,2.75637873

>  <Name>
3c44_lig

>  <RI>
0

>  <Rbt.Current_Directory>
/home/itssahil/PROJECTS/Mol_Feturizer/New_Systems/rnas/3c44

>  <Rbt.Executable>
rbdock ($Id: //depot/dev/client3/rdock/2013.1/src/exe/rbdock.cxx#4 $)

>  <Rbt.Library>
libRbt.so (2013.1, Build901 2013/11/27)

>  <Rbt.Parameter_File>
/export/apps/rDock/src/rDock_2013.1_src/data/scripts/dock_solv.prm

>  <Rbt.Receptor>
prm/blind_docking_80.prm

>  <SCORE>
2.38718

>  <SCORE.INTER>
-14.4032

>  <SCORE.INTER.CONST>
1

>  <SCORE.INTER.POLAR>
-1.43742

>  <SCORE.INTER.ROT>
9

>  <SCORE.INTER.SOLV>
23.01

>  <SCORE.INTER.VDW>
-22.0808

>  <SCORE.INTER.norm>
-0.342934

>  <SCORE.INTRA>
14.1342

>  <SCORE.INTRA.DIHEDRAL>
9.21627

>  <SCORE.INTRA.DIHEDRAL.0>
14.8538

>  <SCORE.INTRA.POLAR>
0

>  <SCORE.INTRA.POLAR.0>
0

>  <SCORE.INTRA.REPUL>
0.127952

>  <SCORE.INTRA.REPUL.0>
0

>  <SCORE.INTRA.SOLV>
-2.06521

>  <SCORE.INTRA.SOLV.lig_0>
-100.951

>  <SCORE.INTRA.VDW>
9.91888

>  <SCORE.INTRA.VDW.0>
-5.71388

>  <SCORE.INTRA.norm>
0.336528

>  <SCORE.RESTR>
2.65625

>  <SCORE.RESTR.CAVITY>
2.65625

>  <SCORE.RESTR.norm>
0.0632442

>  <SCORE.SYSTEM>
0

>  <SCORE.SYSTEM.CONST>
0

>  <SCORE.SYSTEM.DIHEDRAL>
0

>  <SCORE.SYSTEM.SOLV>
0

>  <SCORE.SYSTEM.norm>
0

>  <SCORE.heavy>
42

>  <SCORE.norm>
0.0568375

>  <RMSD>
14.133

$$$$
3c44_lig
 OpenBabel11021811463D
libRbt.so/2013.1/901 2013/11/27
 42 45  0  0  0  0  0  0  0  0999 V2000
   38.1623   44.5125   -5.9786 C   0  0  2  0  0  0  0  0  0  0  0  0
   37.0903   43.6138   -6.3021 O   0  0  0  0  0  0  0  0  0  0  0  0
   36.4441   39.5660   -6.9244 C   0  0  2  0  0  0  0  0  0  0  0  0
   36.4268   38.1080   -7.1192 N   0  0  0  0  0  0  0  0  0  0  0  0
   36.3772   41.3749   -2.8691 C   0  0  1  0  0  0  0  0  0  0  0  0
   34.5500   40.1451    0.7033 C   0  0  1  0  0  0  0  0  0  0  0  0
   37.6277   45.6223   -5.0672 C   0  0  2  0  0  0  0  0  0  0  0  0
   36.9677   45.0549   -3.8826 N   0  0  0  0  0  0  0  0  0  0  0  0
   37.4128   40.2302   -7.9071 C   0  0  0  0  0  0  0  0  0  0  0  0
   37.0848   41.6671   -1.5451 C   0  0  2  0  0  0  0  0  0  0  0  0
   37.9819   40.6018   -1.2255 O   0  0  0  0  0  0  0  0  0  0  0  0
   35.3499   40.1338    2.0102 C   0  0  2  0  0  0  0  0  0  0  0  0
   36.3489   39.0592    1.9305 N   0  0  0  0  0  0  0  0  0  0  0  0
   36.6361   46.5223   -5.8088 C   0  0  1  0  0  0  0  0  0  0  0  0
   36.2881   47.6296   -4.9721 O   0  0  0  0  0  0  0  0  0  0  0  0
   37.2638   41.7477   -7.7552 C   0  0  2  0  0  0  0  0  0  0  0  0
   38.2245   42.4219   -8.6414 N   0  0  0  0  0  0  0  0  0  0  0  0
   35.8897   41.6057   -0.5960 C   0  0  2  0  0  0  0  0  0  0  0  0
   35.4507   40.2496   -0.4133 O   0  0  0  0  0  0  0  0  0  0  0  0
   34.4373   39.8738    3.2158 C   0  0  1  0  0  0  0  0  0  0  0  0
   33.6032   41.0085    3.4643 O   0  0  0  0  0  0  0  0  0  0  0  0
   37.2700   47.0381   -7.1020 C   0  0  2  0  0  0  0  0  0  0  0  0
   36.3047   47.7874   -7.8446 O   0  0  0  0  0  0  0  0  0  0  0  0
   37.4914   42.2326   -6.3180 C   0  0  2  0  0  0  0  0  0  0  0  0
   34.8541   42.3709   -1.4047 C   0  0  2  0  0  0  0  0  0  0  0  0
   35.1745   42.1629   -2.7973 O   0  0  0  0  0  0  0  0  0  0  0  0
   33.5476   38.6524    2.9784 C   0  0  2  0  0  0  0  0  0  0  0  0
   34.3684   37.4812    2.9506 O   0  0  0  0  0  0  0  0  0  0  0  0
   37.7593   45.8555   -7.9394 C   0  0  2  0  0  0  0  0  0  0  0  0
   38.7076   45.0725   -7.1878 O   0  0  0  0  0  0  0  0  0  0  0  0
   36.7255   41.4408   -5.2601 C   0  0  2  0  0  0  0  0  0  0  0  0
   37.2269   41.7795   -3.9568 O   0  0  0  0  0  0  0  0  0  0  0  0
   34.9191   43.8560   -1.0415 C   0  0  0  0  0  0  0  0  0  0  0  0
   33.9691   44.5728   -1.8331 O   0  0  0  0  0  0  0  0  0  0  0  0
   32.8135   38.8227    1.6458 C   0  0  1  0  0  0  0  0  0  0  0  0
   33.7929   38.9289    0.5975 O   0  0  0  0  0  0  0  0  0  0  0  0
   38.4266   46.4209   -9.1958 C   0  0  0  0  0  0  0  0  0  0  0  0
   38.8140   45.3263  -10.0973 O   0  0  0  0  0  0  0  0  0  0  0  0
   36.8627   39.9324   -5.4983 C   0  0  1  0  0  0  0  0  0  0  0  0
   36.0674   39.2137   -4.5528 O   0  0  0  0  0  0  0  0  0  0  0  0
   31.8827   37.6478    1.3433 C   0  0  0  0  0  0  0  0  0  0  0  0
   32.6232   36.3892    1.5077 N   0  0  0  0  0  0  0  0  0  0  0  0
  1  2  1  6  0  0  0
  1  7  1  0  0  0  0
  1 30  1  0  0  0  0
  3  4  1  1  0  0  0
  3  9  1  0  0  0  0
  3 39  1  0  0  0  0
  5 10  1  0  0  0  0
  5 26  1  0  0  0  0
  5 32  1  6  0  0  0
  6 12  1  0  0  0  0
  6 36  1  0  0  0  0
  6 19  1  6  0  0  0
  7  8  1  1  0  0  0
  7 14  1  0  0  0  0
  9 16  1  0  0  0  0
 10 11  1  1  0  0  0
 10 18  1  0  0  0  0
 12 13  1  6  0  0  0
 12 20  1  0  0  0  0
 14 15  1  1  0  0  0
 14 22  1  0  0  0  0
 16 17  1  6  0  0  0
 16 24  1  0  0  0  0
 18 19  1  6  0  0  0
 18 25  1  0  0  0  0
 20 21  1  6  0  0  0
 20 27  1  0  0  0  0
 22 23  1  6  0  0  0
 22 29  1  0  0  0  0
 24  2  1  6  0  0  0
 24 31  1  0  0  0  0
 25 26  1  0  0  0  0
 25 33  1  1  0  0  0
 27 28  1  6  0  0  0
 27 35  1  0  0  0  0
 29 30  1  0  0  0  0
 29 37  1  6  0  0  0
 31 32  1  1  0  0  0
 31 39  1  0  0  0  0
 33 34  1  0  0  0  0
 35 36  1  0  0  0  0
 35 41  1  6  0  0  0
 37 38  1  0  0  0  0
 39 40  1  1  0  0  0
 41 42  1  0  0  0  0
M  END
>  <CHROM.1>
-140.52921805,174.44363861,-79.21859783,166.32224191,-117.79364308,178.38050602
-175.10441530,164.77218559,-50.24924521,36.07301251,42.01668832,-3.25384468
0.42000050,1.22794111,0.12121893

>  <Name>
3c44_lig

>  <RI>
0

>  <Rbt.Current_Directory>
/home/itssahil/PROJECTS/Mol_Feturizer/New_Systems/rnas/3c44

>  <Rbt.Executable>
rbdock ($Id: //depot/dev/client3/rdock/2013.1/src/exe/rbdock.cxx#4 $)

>  <Rbt.Library>
libRbt.so (2013.1, Build901 2013/11/27)

>  <Rbt.Parameter_File>
/export/apps/rDock/src/rDock_2013.1_src/data/scripts/dock_solv.prm

>  <Rbt.Receptor>
prm/blind_docking_80.prm

>  <SCORE>
-1.95264

>  <SCORE.INTER>
-8.17143

>  <SCORE.INTER.CONST>
1

>  <SCORE.INTER.POLAR>
-0.546427

>  <SCORE.INTER.ROT>
9

>  <SCORE.INTER.SOLV>
26.0859

>  <SCORE.INTER.VDW>
-21.9215

>  <SCORE.INTER.norm>
-0.194558

>  <SCORE.INTRA>
3.92129

>  <SCORE.INTRA.DIHEDRAL>
2.16537

>  <SCORE.INTRA.DIHEDRAL.0>
14.8538

>  <SCORE.INTRA.POLAR>
0

>  <SCORE.INTRA.POLAR.0>
0

>  <SCORE.INTRA.REPUL>
0.0155589

>  <SCORE.INTRA.REPUL.0>
0

>  <SCORE.INTRA.SOLV>
2.38604

>  <SCORE.INTRA.SOLV.lig_0>
-100.951

>  <SCORE.INTRA.VDW>
1.5678

>  <SCORE.INTRA.VDW.0>
-5.71388

>  <SCORE.INTRA.norm>
0.0933641

>  <SCORE.RESTR>
2.2975

>  <SCORE.RESTR.CAVITY>
2.2975

>  <SCORE.RESTR.norm>
0.0547024

>  <SCORE.SYSTEM>
0

>  <SCORE.SYSTEM.CONST>
0

>  <SCORE.SYSTEM.DIHEDRAL>
0

>  <SCORE.SYSTEM.SOLV>
0

>  <SCORE.SYSTEM.norm>
0

>  <SCORE.heavy>
42

>  <SCORE.norm>
-0.0464913

>  <RMSD>
14.258

$$$$
3c44_lig
 OpenBabel11021811463D
libRbt.so/2013.1/901 2013/11/27
 42 45  0  0  0  0  0  0  0  0999 V2000
   37.4112   44.1736   -6.1518 C   0  0  2  0  0  0  0  0  0  0  0  0
   38.7604   43.8995   -5.7438 O   0  0  0  0  0  0  0  0  0  0  0  0
   39.1347   39.9054   -4.6965 C   0  0  2  0  0  0  0  0  0  0  0  0
   39.2973   38.5599   -4.1247 N   0  0  0  0  0  0  0  0  0  0  0  0
   35.9660   41.9501   -3.1276 C   0  0  1  0  0  0  0  0  0  0  0  0
   35.0804   40.1800    0.5716 C   0  0  1  0  0  0  0  0  0  0  0  0
   37.3931   44.4706   -7.6549 C   0  0  2  0  0  0  0  0  0  0  0  0
   38.0184   43.3771   -8.4127 N   0  0  0  0  0  0  0  0  0  0  0  0
   40.3453   40.7827   -4.3647 C   0  0  0  0  0  0  0  0  0  0  0  0
   36.7631   42.3873   -1.8977 C   0  0  2  0  0  0  0  0  0  0  0  0
   37.9459   41.5950   -1.7756 O   0  0  0  0  0  0  0  0  0  0  0  0
   36.0606   39.4447    1.4916 C   0  0  2  0  0  0  0  0  0  0  0  0
   36.6386   38.3191    0.7445 N   0  0  0  0  0  0  0  0  0  0  0  0
   38.1212   45.7790   -7.9726 C   0  0  1  0  0  0  0  0  0  0  0  0
   37.9420   46.0939   -9.3569 O   0  0  0  0  0  0  0  0  0  0  0  0
   40.1816   42.1075   -5.1171 C   0  0  2  0  0  0  0  0  0  0  0  0
   41.2972   43.0025   -4.7745 N   0  0  0  0  0  0  0  0  0  0  0  0
   35.7831   41.9814   -0.7987 C   0  0  2  0  0  0  0  0  0  0  0  0
   35.7483   40.5528   -0.6465 O   0  0  0  0  0  0  0  0  0  0  0  0
   35.3489   38.9000    2.7369 C   0  0  1  0  0  0  0  0  0  0  0  0
   34.9742   39.9715    3.6065 O   0  0  0  0  0  0  0  0  0  0  0  0
   37.5540   46.9106   -7.1135 C   0  0  2  0  0  0  0  0  0  0  0  0
   38.3091   48.1051   -7.3328 O   0  0  0  0  0  0  0  0  0  0  0  0
   38.8605   42.8191   -4.7995 C   0  0  2  0  0  0  0  0  0  0  0  0
   34.4733   42.4603   -1.4047 C   0  0  2  0  0  0  0  0  0  0  0  0
   34.6236   42.3829   -2.8389 O   0  0  0  0  0  0  0  0  0  0  0  0
   34.0926   38.1163    2.3532 C   0  0  2  0  0  0  0  0  0  0  0  0
   34.4836   36.9218    1.6703 O   0  0  0  0  0  0  0  0  0  0  0  0
   37.6278   46.5185   -5.6370 C   0  0  2  0  0  0  0  0  0  0  0  0
   36.8987   45.2962   -5.4101 O   0  0  0  0  0  0  0  0  0  0  0  0
   37.6283   41.9205   -4.8821 C   0  0  2  0  0  0  0  0  0  0  0  0
   36.5057   42.5971   -4.2933 O   0  0  0  0  0  0  0  0  0  0  0  0
   34.2000   43.8979   -0.9573 C   0  0  0  0  0  0  0  0  0  0  0  0
   33.6774   43.8820    0.3729 O   0  0  0  0  0  0  0  0  0  0  0  0
   33.2190   38.9884    1.4476 C   0  0  1  0  0  0  0  0  0  0  0  0
   33.9732   39.3168    0.2676 O   0  0  0  0  0  0  0  0  0  0  0  0
   37.0072   47.6568   -4.8228 C   0  0  0  0  0  0  0  0  0  0  0  0
   35.5460   47.6533   -4.9832 O   0  0  0  0  0  0  0  0  0  0  0  0
   37.8724   40.5881   -4.1637 C   0  0  1  0  0  0  0  0  0  0  0  0
   36.7420   39.7291   -4.3293 O   0  0  0  0  0  0  0  0  0  0  0  0
   31.9270   38.2820    1.0350 C   0  0  0  0  0  0  0  0  0  0  0  0
   32.2453   37.2091    0.0825 N   0  0  0  0  0  0  0  0  0  0  0  0
  1  2  1  1  0  0  0
  1  7  1  0  0  0  0
  1 30  1  0  0  0  0
  3  4  1  1  0  0  0
  3  9  1  0  0  0  0
  3 39  1  0  0  0  0
  5 10  1  0  0  0  0
  5 26  1  0  0  0  0
  5 32  1  6  0  0  0
  6 12  1  0  0  0  0
  6 36  1  0  0  0  0
  6 19  1  6  0  0  0
  7  8  1  6  0  0  0
  7 14  1  0  0  0  0
  9 16  1  0  0  0  0
 10 11  1  1  0  0  0
 10 18  1  0  0  0  0
 12 13  1  6  0  0  0
 12 20  1  0  0  0  0
 14 15  1  6  0  0  0
 14 22  1  0  0  0  0
 16 17  1  1  0  0  0
 16 24  1  0  0  0  0
 18 19  1  6  0  0  0
 18 25  1  0  0  0  0
 20 21  1  1  0  0  0
 20 27  1  0  0  0  0
 22 23  1  1  0  0  0
 22 29  1  0  0  0  0
 24  2  1  6  0  0  0
 24 31  1  0  0  0  0
 25 26  1  0  0  0  0
 25 33  1  6  0  0  0
 27 28  1  6  0  0  0
 27 35  1  0  0  0  0
 29 30  1  0  0  0  0
 29 37  1  1  0  0  0
 31 32  1  1  0  0  0
 31 39  1  0  0  0  0
 33 34  1  0  0  0  0
 35 36  1  0  0  0  0
 35 41  1  6  0  0  0
 37 38  1  0  0  0  0
 39 40  1  6  0  0  0
 41 42  1  0  0  0  0
M  END
>  <CHROM.1>
-139.61536086,84.76358962,-117.40920516,166.57501583,145.83930735,-79.10756154
73.33408392,-116.74892651,-71.26556682,36.53806826,42.14062445,-2.93064802
1.09060604,0.75265222,-0.55365135

>  <Name>
3c44_lig

>  <RI>
0

>  <Rbt.Current_Directory>
/home/itssahil/PROJECTS/Mol_Feturizer/New_Systems/rnas/3c44

>  <Rbt.Executable>
rbdock ($Id: //depot/dev/client3/rdock/2013.1/src/exe/rbdock.cxx#4 $)

>  <Rbt.Library>
libRbt.so (2013.1, Build901 2013/11/27)

>  <Rbt.Parameter_File>
/export/apps/rDock/src/rDock_2013.1_src/data/scripts/dock_solv.prm

>  <Rbt.Receptor>
prm/blind_docking_80.prm

>  <SCORE>
19.4775

>  <SCORE.INTER>
-2.35275

>  <SCORE.INTER.CONST>
1

>  <SCORE.INTER.POLAR>
0

>  <SCORE.INTER.ROT>
9

>  <SCORE.INTER.SOLV>
24.9619

>  <SCORE.INTER.VDW>
-19.4891

>  <SCORE.INTER.norm>
-0.0560178

>  <SCORE.INTRA>
18.6551

>  <SCORE.INTRA.DIHEDRAL>
15.3231

>  <SCORE.INTRA.DIHEDRAL.0>
14.8538

>  <SCORE.INTRA.POLAR>
0

>  <SCORE.INTRA.POLAR.0>
0

>  <SCORE.INTRA.REPUL>
0

>  <SCORE.INTRA.REPUL.0>
0

>  <SCORE.INTRA.SOLV>
-1.94794

>  <SCORE.INTRA.SOLV.lig_0>
-100.951

>  <SCORE.INTRA.VDW>
11.9675

>  <SCORE.INTRA.VDW.0>
-5.71388

>  <SCORE.INTRA.norm>
0.444168

>  <SCORE.RESTR>
3.17518

>  <SCORE.RESTR.CAVITY>
3.17518

>  <SCORE.RESTR.norm>
0.0755996

>  <SCORE.SYSTEM>
0

>  <SCORE.SYSTEM.CONST>
0

>  <SCORE.SYSTEM.DIHEDRAL>
0

>  <SCORE.SYSTEM.SOLV>
0

>  <SCORE.SYSTEM.norm>
0

>  <SCORE.heavy>
42

>  <SCORE.norm>
0.46375

>  <RMSD>
14.503

$$$$
3c44_lig
 OpenBabel11021811463D
libRbt.so/2013.1/901 2013/11/27
 42 45  0  0  0  0  0  0  0  0999 V2000
   29.9406   31.6268  -22.0198 C   0  0  2  0  0  0  0  0  0  0  0  0
   28.6084   31.3833  -21.5426 O   0  0  0  0  0  0  0  0  0  0  0  0
   25.0869   32.4307  -23.4639 C   0  0  2  0  0  0  0  0  0  0  0  0
   23.9092   32.6824  -24.3086 N   0  0  0  0  0  0  0  0  0  0  0  0
   26.7239   29.0249  -20.3986 C   0  0  1  0  0  0  0  0  0  0  0  0
   27.0383   28.1451  -16.8761 C   0  0  1  0  0  0  0  0  0  0  0  0
   30.9423   30.9611  -21.0704 C   0  0  2  0  0  0  0  0  0  0  0  0
   30.6367   29.5328  -20.9038 N   0  0  0  0  0  0  0  0  0  0  0  0
   26.3720   32.8212  -24.1995 C   0  0  0  0  0  0  0  0  0  0  0  0
   28.2357   29.0245  -20.1674 C   0  0  2  0  0  0  0  0  0  0  0  0
   28.7868   27.7610  -20.5436 O   0  0  0  0  0  0  0  0  0  0  0  0
   26.9529   26.8704  -16.0301 C   0  0  2  0  0  0  0  0  0  0  0  0
   26.4875   25.7750  -16.8918 N   0  0  0  0  0  0  0  0  0  0  0  0
   30.9402   31.6361  -19.6965 C   0  0  1  0  0  0  0  0  0  0  0  0
   31.9956   31.0882  -18.9007 O   0  0  0  0  0  0  0  0  0  0  0  0
   27.5356   32.6813  -23.2123 C   0  0  2  0  0  0  0  0  0  0  0  0
   28.7978   32.9896  -23.9013 N   0  0  0  0  0  0  0  0  0  0  0  0
   28.2628   29.1397  -18.6446 C   0  0  2  0  0  0  0  0  0  0  0  0
   27.8612   27.9039  -18.0310 O   0  0  0  0  0  0  0  0  0  0  0  0
   25.9648   27.0417  -14.8689 C   0  0  1  0  0  0  0  0  0  0  0  0
   26.4974   27.9357  -13.8880 O   0  0  0  0  0  0  0  0  0  0  0  0
   31.1511   33.1426  -19.8580 C   0  0  2  0  0  0  0  0  0  0  0  0
   31.0387   33.7827  -18.5842 O   0  0  0  0  0  0  0  0  0  0  0  0
   27.6365   31.2796  -22.5978 C   0  0  2  0  0  0  0  0  0  0  0  0
   27.1847   30.1896  -18.4269 C   0  0  2  0  0  0  0  0  0  0  0  0
   26.2405   30.0498  -19.5106 O   0  0  0  0  0  0  0  0  0  0  0  0
   24.6268   27.5945  -15.3627 C   0  0  2  0  0  0  0  0  0  0  0  0
   23.9877   26.6033  -16.1720 O   0  0  0  0  0  0  0  0  0  0  0  0
   30.0983   33.7075  -20.8129 C   0  0  2  0  0  0  0  0  0  0  0  0
   30.1791   33.0450  -22.0903 O   0  0  0  0  0  0  0  0  0  0  0  0
   26.3160   30.7351  -22.0572 C   0  0  2  0  0  0  0  0  0  0  0  0
   26.4582   29.3328  -21.7781 O   0  0  0  0  0  0  0  0  0  0  0  0
   27.8207   31.5814  -18.4279 C   0  0  0  0  0  0  0  0  0  0  0  0
   28.9005   31.6026  -17.4917 O   0  0  0  0  0  0  0  0  0  0  0  0
   24.8833   28.8655  -16.1768 C   0  0  1  0  0  0  0  0  0  0  0  0
   25.7191   28.5267  -17.2974 O   0  0  0  0  0  0  0  0  0  0  0  0
   30.3782   35.2031  -20.9804 C   0  0  0  0  0  0  0  0  0  0  0  0
   31.6172   35.4018  -21.7462 O   0  0  0  0  0  0  0  0  0  0  0  0
   25.1793   30.9564  -23.0622 C   0  0  1  0  0  0  0  0  0  0  0  0
   23.9388   30.5214  -22.5009 O   0  0  0  0  0  0  0  0  0  0  0  0
   23.5880   29.4948  -16.6911 C   0  0  0  0  0  0  0  0  0  0  0  0
   23.9135   30.6694  -17.5120 N   0  0  0  0  0  0  0  0  0  0  0  0
  1  2  1  1  0  0  0
  1  7  1  0  0  0  0
  1 30  1  0  0  0  0
  3  4  1  6  0  0  0
  3  9  1  0  0  0  0
  3 39  1  0  0  0  0
  5 10  1  0  0  0  0
  5 26  1  0  0  0  0
  5 32  1  6  0  0  0
  6 12  1  0  0  0  0
  6 36  1  0  0  0  0
  6 19  1  6  0  0  0
  7  8  1  1  0  0  0
  7 14  1  0  0  0  0
  9 16  1  0  0  0  0
 10 11  1  1  0  0  0
 10 18  1  0  0  0  0
 12 13  1  6  0  0  0
 12 20  1  0  0  0  0
 14 15  1  1  0  0  0
 14 22  1  0  0  0  0
 16 17  1  6  0  0  0
 16 24  1  0  0  0  0
 18 19  1  1  0  0  0
 18 25  1  0  0  0  0
 20 21  1  1  0  0  0
 20 27  1  0  0  0  0
 22 23  1  1  0  0  0
 22 29  1  0  0  0  0
 24  2  1  1  0  0  0
 24 31  1  0  0  0  0
 25 26  1  0  0  0  0
 25 33  1  6  0  0  0
 27 28  1  6  0  0  0
 27 35  1  0  0  0  0
 29 30  1  0  0  0  0
 29 37  1  6  0  0  0
 31 32  1  6  0  0  0
 31 39  1  0  0  0  0
 33 34  1  0  0  0  0
 35 36  1  0  0  0  0
 35 41  1  6  0  0  0
 37 38  1  0  0  0  0
 39 40  1  1  0  0  0
 41 42  1  0  0  0  0
M  END
>  <CHROM.1>
-147.94723554,-89.46388662,-164.26551273,-140.72626450,-67.74087269,-52.64835884
69.79501253,97.97736334,-177.40265999,27.59955631,30.49464656,-19.71052846
-1.10091476,0.38514794,2.11640249

>  <Name>
3c44_lig

>  <RI>
224

>  <Rbt.Current_Directory>
/home/itssahil/PROJECTS/Mol_Feturizer/New_Systems/rnas/3c44

>  <Rbt.Executable>
rbdock ($Id: //depot/dev/client3/rdock/2013.1/src/exe/rbdock.cxx#4 $)

>  <Rbt.Library>
libRbt.so (2013.1, Build901 2013/11/27)

>  <Rbt.Parameter_File>
/export/apps/rDock/src/rDock_2013.1_src/data/scripts/dock_solv.prm

>  <Rbt.Receptor>
prm/blind_docking_60.prm

>  <SCORE>
14.2489

>  <SCORE.INTER>
-7.55624

>  <SCORE.INTER.CONST>
1

>  <SCORE.INTER.POLAR>
-1.1887

>  <SCORE.INTER.ROT>
9

>  <SCORE.INTER.SOLV>
25.7484

>  <SCORE.INTER.VDW>
-19.2579

>  <SCORE.INTER.norm>
-0.179911

>  <SCORE.INTRA>
16.5153

>  <SCORE.INTRA.DIHEDRAL>
4.88095

>  <SCORE.INTRA.DIHEDRAL.0>
14.8538

>  <SCORE.INTRA.POLAR>
0

>  <SCORE.INTRA.POLAR.0>
0

>  <SCORE.INTRA.REPUL>
0

>  <SCORE.INTRA.REPUL.0>
0

>  <SCORE.INTRA.SOLV>
5.98137

>  <SCORE.INTRA.SOLV.lig_0>
-100.951

>  <SCORE.INTRA.VDW>
11.0841

>  <SCORE.INTRA.VDW.0>
-5.71388

>  <SCORE.INTRA.norm>
0.393222

>  <SCORE.RESTR>
5.28983

>  <SCORE.RESTR.CAVITY>
5.28983

>  <SCORE.RESTR.norm>
0.125948

>  <SCORE.SYSTEM>
0

>  <SCORE.SYSTEM.CONST>
0

>  <SCORE.SYSTEM.DIHEDRAL>
0

>  <SCORE.SYSTEM.SOLV>
0

>  <SCORE.SYSTEM.norm>
0

>  <SCORE.heavy>
42

>  <SCORE.norm>
0.339259

>  <RMSD>
15.480

$$$$
3c44_lig
 OpenBabel11021811463D
libRbt.so/2013.1/901 2013/11/27
 42 45  0  0  0  0  0  0  0  0999 V2000
   28.5453   31.1162  -23.7237 C   0  0  2  0  0  0  0  0  0  0  0  0
   28.1844   32.5057  -23.6969 O   0  0  0  0  0  0  0  0  0  0  0  0
   29.3999   35.4922  -21.0905 C   0  0  2  0  0  0  0  0  0  0  0  0
   29.7145   36.4486  -20.0180 N   0  0  0  0  0  0  0  0  0  0  0  0
   29.4355   31.1676  -20.6747 C   0  0  1  0  0  0  0  0  0  0  0  0
   27.3601   29.0435  -17.9299 C   0  0  1  0  0  0  0  0  0  0  0  0
   27.9846   30.4776  -24.9987 C   0  0  2  0  0  0  0  0  0  0  0  0
   28.4250   31.2154  -26.1915 N   0  0  0  0  0  0  0  0  0  0  0  0
   27.8845   35.3552  -21.2640 C   0  0  0  0  0  0  0  0  0  0  0  0
   30.3306   30.2825  -19.8061 C   0  0  2  0  0  0  0  0  0  0  0  0
   30.5674   29.0351  -20.4615 O   0  0  0  0  0  0  0  0  0  0  0  0
   27.8802   28.0967  -16.8432 C   0  0  2  0  0  0  0  0  0  0  0  0
   28.2313   26.8174  -17.4752 N   0  0  0  0  0  0  0  0  0  0  0  0
   26.4547   30.4354  -24.9739 C   0  0  1  0  0  0  0  0  0  0  0  0
   25.9854   29.6927  -26.1033 O   0  0  0  0  0  0  0  0  0  0  0  0
   27.6333   34.4716  -22.4905 C   0  0  2  0  0  0  0  0  0  0  0  0
   26.1863   34.2661  -22.6538 N   0  0  0  0  0  0  0  0  0  0  0  0
   29.3912   30.0474  -18.6250 C   0  0  2  0  0  0  0  0  0  0  0  0
   28.3313   29.1466  -18.9859 O   0  0  0  0  0  0  0  0  0  0  0  0
   26.8118   27.8435  -15.7716 C   0  0  1  0  0  0  0  0  0  0  0  0
   26.6110   29.0172  -14.9797 O   0  0  0  0  0  0  0  0  0  0  0  0
   25.9748   29.7643  -23.6856 C   0  0  2  0  0  0  0  0  0  0  0  0
   24.5478   29.8253  -23.6149 O   0  0  0  0  0  0  0  0  0  0  0  0
   28.3201   33.1034  -22.3956 C   0  0  2  0  0  0  0  0  0  0  0  0
   28.8272   31.4469  -18.4367 C   0  0  2  0  0  0  0  0  0  0  0  0
   28.8379   32.0797  -19.7347 O   0  0  0  0  0  0  0  0  0  0  0  0
   25.4788   27.4458  -16.4077 C   0  0  2  0  0  0  0  0  0  0  0  0
   25.6222   26.1587  -17.0149 O   0  0  0  0  0  0  0  0  0  0  0  0
   26.5815   30.4810  -22.4783 C   0  0  2  0  0  0  0  0  0  0  0  0
   28.0204   30.4560  -22.5567 O   0  0  0  0  0  0  0  0  0  0  0  0
   29.7902   33.1665  -21.9866 C   0  0  2  0  0  0  0  0  0  0  0  0
   30.2470   31.8466  -21.6488 O   0  0  0  0  0  0  0  0  0  0  0  0
   29.6976   32.2179  -17.4420 C   0  0  0  0  0  0  0  0  0  0  0  0
   30.9758   32.4641  -18.0322 O   0  0  0  0  0  0  0  0  0  0  0  0
   25.0961   28.4926  -17.4573 C   0  0  1  0  0  0  0  0  0  0  0  0
   26.1275   28.5298  -18.4594 O   0  0  0  0  0  0  0  0  0  0  0  0
   26.1132   29.7470  -21.2192 C   0  0  0  0  0  0  0  0  0  0  0  0
   26.8756   28.5019  -21.0480 O   0  0  0  0  0  0  0  0  0  0  0  0
   29.9875   34.1101  -20.7942 C   0  0  1  0  0  0  0  0  0  0  0  0
   31.3784   34.2234  -20.4853 O   0  0  0  0  0  0  0  0  0  0  0  0
   23.7583   28.1779  -18.1279 C   0  0  0  0  0  0  0  0  0  0  0  0
   23.8026   26.8169  -18.6805 N   0  0  0  0  0  0  0  0  0  0  0  0
  1  2  1  1  0  0  0
  1  7  1  0  0  0  0
  1 30  1  0  0  0  0
  3  4  1  1  0  0  0
  3  9  1  0  0  0  0
  3 39  1  0  0  0  0
  5 10  1  0  0  0  0
  5 26  1  0  0  0  0
  5 32  1  6  0  0  0
  6 12  1  0  0  0  0
  6 36  1  0  0  0  0
  6 19  1  6  0  0  0
  7  8  1  6  0  0  0
  7 14  1  0  0  0  0
  9 16  1  0  0  0  0
 10 11  1  6  0  0  0
 10 18  1  0  0  0  0
 12 13  1  6  0  0  0
 12 20  1  0  0  0  0
 14 15  1  6  0  0  0
 14 22  1  0  0  0  0
 16 17  1  1  0  0  0
 16 24  1  0  0  0  0
 18 19  1  6  0  0  0
 18 25  1  0  0  0  0
 20 21  1  6  0  0  0
 20 27  1  0  0  0  0
 22 23  1  1  0  0  0
 22 29  1  0  0  0  0
 24  2  1  6  0  0  0
 24 31  1  0  0  0  0
 25 26  1  0  0  0  0
 25 33  1  1  0  0  0
 27 28  1  6  0  0  0
 27 35  1  0  0  0  0
 29 30  1  0  0  0  0
 29 37  1  1  0  0  0
 31 32  1  1  0  0  0
 31 39  1  0  0  0  0
 33 34  1  0  0  0  0
 35 36  1  0  0  0  0
 35 41  1  6  0  0  0
 37 38  1  0  0  0  0
 39 40  1  6  0  0  0
 41 42  1  0  0  0  0
M  END
>  <CHROM.1>
163.25605569,-146.29649136,-79.41449324,-173.30546956,-168.77831744,68.03346643
76.86641638,-52.90780129,-54.49898843,27.80066705,30.71196757,-20.48493826
1.10987438,-0.87726160,-1.19284358

>  <Name>
3c44_lig

>  <RI>
224

>  <Rbt.Current_Directory>
/home/itssahil/PROJECTS/Mol_Feturizer/New_Systems/rnas/3c44

>  <Rbt.Executable>
rbdock ($Id: //depot/dev/client3/rdock/2013.1/src/exe/rbdock.cxx#4 $)

>  <Rbt.Library>
libRbt.so (2013.1, Build901 2013/11/27)

>  <Rbt.Parameter_File>
/export/apps/rDock/src/rDock_2013.1_src/data/scripts/dock_solv.prm

>  <Rbt.Receptor>
prm/blind_docking_60.prm

>  <SCORE>
3.65667

>  <SCORE.INTER>
-5.99135

>  <SCORE.INTER.CONST>
1

>  <SCORE.INTER.POLAR>
0

>  <SCORE.INTER.ROT>
9

>  <SCORE.INTER.SOLV>
33.223

>  <SCORE.INTER.VDW>
-24.6686

>  <SCORE.INTER.norm>
-0.142651

>  <SCORE.INTRA>
5.61618

>  <SCORE.INTRA.DIHEDRAL>
-4.83485

>  <SCORE.INTRA.DIHEDRAL.0>
14.8538

>  <SCORE.INTRA.POLAR>
0

>  <SCORE.INTRA.POLAR.0>
0

>  <SCORE.INTRA.REPUL>
0.220748

>  <SCORE.INTRA.REPUL.0>
0

>  <SCORE.INTRA.SOLV>
0.791335

>  <SCORE.INTRA.SOLV.lig_0>
-100.951

>  <SCORE.INTRA.VDW>
6.5342

>  <SCORE.INTRA.VDW.0>
-5.71388

>  <SCORE.INTRA.norm>
0.133719

>  <SCORE.RESTR>
4.03183

>  <SCORE.RESTR.CAVITY>
4.03183

>  <SCORE.RESTR.norm>
0.0959959

>  <SCORE.SYSTEM>
0

>  <SCORE.SYSTEM.CONST>
0

>  <SCORE.SYSTEM.DIHEDRAL>
0

>  <SCORE.SYSTEM.SOLV>
0

>  <SCORE.SYSTEM.norm>
0

>  <SCORE.heavy>
42

>  <SCORE.norm>
0.0870635

>  <RMSD>
15.527

$$$$
3c44_lig
 OpenBabel11021811463D
libRbt.so/2013.1/901 2013/11/27
 42 45  0  0  0  0  0  0  0  0999 V2000
   29.0060   33.0059  -21.1962 C   0  0  2  0  0  0  0  0  0  0  0  0
   29.5113   32.3930  -22.3924 O   0  0  0  0  0  0  0  0  0  0  0  0
   25.5983   31.6135  -23.5194 C   0  0  2  0  0  0  0  0  0  0  0  0
   24.2954   31.2160  -24.0748 N   0  0  0  0  0  0  0  0  0  0  0  0
   28.1361   29.3527  -20.4000 C   0  0  1  0  0  0  0  0  0  0  0  0
   27.4002   28.1661  -16.9882 C   0  0  1  0  0  0  0  0  0  0  0  0
   29.0521   34.5292  -21.3561 C   0  0  2  0  0  0  0  0  0  0  0  0
   28.3390   34.9503  -22.5706 N   0  0  0  0  0  0  0  0  0  0  0  0
   26.4728   32.2549  -24.6007 C   0  0  0  0  0  0  0  0  0  0  0  0
   28.9930   30.2437  -19.4995 C   0  0  2  0  0  0  0  0  0  0  0  0
   30.3166   29.7136  -19.4054 O   0  0  0  0  0  0  0  0  0  0  0  0
   27.8378   27.0724  -16.0084 C   0  0  2  0  0  0  0  0  0  0  0  0
   28.6419   26.0876  -16.7451 N   0  0  0  0  0  0  0  0  0  0  0  0
   30.4940   35.0387  -21.4212 C   0  0  1  0  0  0  0  0  0  0  0  0
   30.4891   36.4695  -21.4100 O   0  0  0  0  0  0  0  0  0  0  0  0
   27.7418   32.7819  -23.9224 C   0  0  2  0  0  0  0  0  0  0  0  0
   28.6367   33.3520  -24.9408 N   0  0  0  0  0  0  0  0  0  0  0  0
   28.2791   30.0246  -18.1671 C   0  0  2  0  0  0  0  0  0  0  0  0
   28.5551   28.7132  -17.6485 O   0  0  0  0  0  0  0  0  0  0  0  0
   26.6248   26.3618  -15.3938 C   0  0  1  0  0  0  0  0  0  0  0  0
   25.9458   27.2306  -14.4833 O   0  0  0  0  0  0  0  0  0  0  0  0
   31.2825   34.5209  -20.2168 C   0  0  2  0  0  0  0  0  0  0  0  0
   32.6540   34.9070  -20.3385 O   0  0  0  0  0  0  0  0  0  0  0  0
   28.5015   31.6992  -23.1459 C   0  0  2  0  0  0  0  0  0  0  0  0
   26.8279   30.0995  -18.6147 C   0  0  2  0  0  0  0  0  0  0  0  0
   26.7881   29.6366  -19.9820 O   0  0  0  0  0  0  0  0  0  0  0  0
   25.6401   25.9189  -16.4773 C   0  0  2  0  0  0  0  0  0  0  0  0
   26.2457   24.8837  -17.2569 O   0  0  0  0  0  0  0  0  0  0  0  0
   31.1803   32.9961  -20.1553 C   0  0  2  0  0  0  0  0  0  0  0  0
   29.7992   32.5936  -20.0675 O   0  0  0  0  0  0  0  0  0  0  0  0
   27.6245   30.8599  -22.2191 C   0  0  2  0  0  0  0  0  0  0  0  0
   28.3653   29.7120  -21.7737 O   0  0  0  0  0  0  0  0  0  0  0  0
   26.3355   31.5444  -18.5089 C   0  0  0  0  0  0  0  0  0  0  0  0
   26.4499   31.9790  -17.1521 O   0  0  0  0  0  0  0  0  0  0  0  0
   25.2970   27.1218  -17.3600 C   0  0  1  0  0  0  0  0  0  0  0  0
   26.5104   27.6026  -17.9650 O   0  0  0  0  0  0  0  0  0  0  0  0
   31.9413   32.5296  -18.9116 C   0  0  0  0  0  0  0  0  0  0  0  0
   30.9972   32.2278  -17.8261 O   0  0  0  0  0  0  0  0  0  0  0  0
   26.3438   30.4118  -22.9334 C   0  0  1  0  0  0  0  0  0  0  0  0
   25.4981   29.7050  -22.0233 O   0  0  0  0  0  0  0  0  0  0  0  0
   24.2966   26.7658  -18.4604 C   0  0  0  0  0  0  0  0  0  0  0  0
   22.9317   26.8738  -17.9266 N   0  0  0  0  0  0  0  0  0  0  0  0
  1  2  1  6  0  0  0
  1  7  1  0  0  0  0
  1 30  1  0  0  0  0
  3  4  1  6  0  0  0
  3  9  1  0  0  0  0
  3 39  1  0  0  0  0
  5 10  1  0  0  0  0
  5 26  1  0  0  0  0
  5 32  1  6  0  0  0
  6 12  1  0  0  0  0
  6 36  1  0  0  0  0
  6 19  1  6  0  0  0
  7  8  1  6  0  0  0
  7 14  1  0  0  0  0
  9 16  1  0  0  0  0
 10 11  1  1  0  0  0
 10 18  1  0  0  0  0
 12 13  1  6  0  0  0
 12 20  1  0  0  0  0
 14 15  1  1  0  0  0
 14 22  1  0  0  0  0
 16 17  1  6  0  0  0
 16 24  1  0  0  0  0
 18 19  1  6  0  0  0
 18 25  1  0  0  0  0
 20 21  1  1  0  0  0
 20 27  1  0  0  0  0
 22 23  1  6  0  0  0
 22 29  1  0  0  0  0
 24  2  1  1  0  0  0
 24 31  1  0  0  0  0
 25 26  1  0  0  0  0
 25 33  1  6  0  0  0
 27 28  1  6  0  0  0
 27 35  1  0  0  0  0
 29 30  1  0  0  0  0
 29 37  1  1  0  0  0
 31 32  1  6  0  0  0
 31 39  1  0  0  0  0
 33 34  1  0  0  0  0
 35 36  1  0  0  0  0
 35 41  1  6  0  0  0
 37 38  1  0  0  0  0
 39 40  1  1  0  0  0
 41 42  1  0  0  0  0
M  END
>  <CHROM.1>
-111.39816771,-81.34300673,-158.24231673,-143.65267235,79.46156252,-59.67817274
101.16451292,141.39999645,85.52547975,27.92392901,30.59629010,-19.86095246
-1.09047314,0.64982820,2.19656275

>  <Name>
3c44_lig

>  <RI>
224

>  <Rbt.Current_Directory>
/home/itssahil/PROJECTS/Mol_Feturizer/New_Systems/rnas/3c44

>  <Rbt.Executable>
rbdock ($Id: //depot/dev/client3/rdock/2013.1/src/exe/rbdock.cxx#4 $)

>  <Rbt.Library>
libRbt.so (2013.1, Build901 2013/11/27)

>  <Rbt.Parameter_File>
/export/apps/rDock/src/rDock_2013.1_src/data/scripts/dock_solv.prm

>  <Rbt.Receptor>
prm/blind_docking_60.prm

>  <SCORE>
19.2315

>  <SCORE.INTER>
-3.64236

>  <SCORE.INTER.CONST>
1

>  <SCORE.INTER.POLAR>
-0.979796

>  <SCORE.INTER.ROT>
9

>  <SCORE.INTER.SOLV>
30.5452

>  <SCORE.INTER.VDW>
-18.944

>  <SCORE.INTER.norm>
-0.0867229

>  <SCORE.INTRA>
16.4198

>  <SCORE.INTRA.DIHEDRAL>
13.8545

>  <SCORE.INTRA.DIHEDRAL.0>
14.8538

>  <SCORE.INTRA.POLAR>
0

>  <SCORE.INTRA.POLAR.0>
0

>  <SCORE.INTRA.REPUL>
0

>  <SCORE.INTRA.REPUL.0>
0

>  <SCORE.INTRA.SOLV>
1.36818

>  <SCORE.INTRA.SOLV.lig_0>
-100.951

>  <SCORE.INTRA.VDW>
8.80841

>  <SCORE.INTRA.VDW.0>
-5.71388

>  <SCORE.INTRA.norm>
0.390947

>  <SCORE.RESTR>
6.45408

>  <SCORE.RESTR.CAVITY>
6.45408

>  <SCORE.RESTR.norm>
0.153669

>  <SCORE.SYSTEM>
0

>  <SCORE.SYSTEM.CONST>
0

>  <SCORE.SYSTEM.DIHEDRAL>
0

>  <SCORE.SYSTEM.SOLV>
0

>  <SCORE.SYSTEM.norm>
0

>  <SCORE.heavy>
42

>  <SCORE.norm>
0.457892

>  <RMSD>
15.531

$$$$
3c44_lig
 OpenBabel11021811463D
libRbt.so/2013.1/901 2013/11/27
 42 45  0  0  0  0  0  0  0  0999 V2000
   28.4986   31.0378  -23.7607 C   0  0  2  0  0  0  0  0  0  0  0  0
   28.1425   32.4288  -23.7539 O   0  0  0  0  0  0  0  0  0  0  0  0
   29.3530   35.4540  -21.1902 C   0  0  2  0  0  0  0  0  0  0  0  0
   29.6666   36.4257  -20.1312 N   0  0  0  0  0  0  0  0  0  0  0  0
   29.3988   31.1312  -20.7249 C   0  0  1  0  0  0  0  0  0  0  0  0
   27.3158   29.0085  -17.9789 C   0  0  1  0  0  0  0  0  0  0  0  0
   27.9016   30.3742  -25.0062 C   0  0  2  0  0  0  0  0  0  0  0  0
   28.3116   31.0849  -26.2260 N   0  0  0  0  0  0  0  0  0  0  0  0
   27.8378   35.3094  -21.3585 C   0  0  0  0  0  0  0  0  0  0  0  0
   30.2807   30.1928  -19.8997 C   0  0  2  0  0  0  0  0  0  0  0  0
   30.4559   28.9543  -20.5905 O   0  0  0  0  0  0  0  0  0  0  0  0
   27.8925   28.1181  -16.8732 C   0  0  2  0  0  0  0  0  0  0  0  0
   28.2765   26.8315  -17.4701 N   0  0  0  0  0  0  0  0  0  0  0  0
   26.3728   30.3378  -24.9390 C   0  0  1  0  0  0  0  0  0  0  0  0
   25.8709   29.5729  -26.0391 O   0  0  0  0  0  0  0  0  0  0  0  0
   27.5871   34.4087  -22.5725 C   0  0  2  0  0  0  0  0  0  0  0  0
   26.1404   34.1959  -22.7299 N   0  0  0  0  0  0  0  0  0  0  0  0
   29.3610   29.9627  -18.7022 C   0  0  2  0  0  0  0  0  0  0  0  0
   28.2604   29.1103  -19.0589 O   0  0  0  0  0  0  0  0  0  0  0  0
   26.8565   27.8635  -15.7705 C   0  0  1  0  0  0  0  0  0  0  0  0
   26.6298   29.0554  -15.0136 O   0  0  0  0  0  0  0  0  0  0  0  0
   25.9261   29.6959  -23.6241 C   0  0  2  0  0  0  0  0  0  0  0  0
   24.5018   29.7635  -23.5161 O   0  0  0  0  0  0  0  0  0  0  0  0
   28.2789   33.0443  -22.4610 C   0  0  2  0  0  0  0  0  0  0  0  0
   28.8536   31.3766  -18.4668 C   0  0  2  0  0  0  0  0  0  0  0  0
   28.8574   32.0407  -19.7491 O   0  0  0  0  0  0  0  0  0  0  0  0
   25.5258   27.3974  -16.3636 C   0  0  2  0  0  0  0  0  0  0  0  0
   25.7031   26.0963  -16.9309 O   0  0  0  0  0  0  0  0  0  0  0  0
   26.5675   30.4361  -22.4493 C   0  0  2  0  0  0  0  0  0  0  0  0
   28.0036   30.4045  -22.5661 O   0  0  0  0  0  0  0  0  0  0  0  0
   29.7497   33.1180  -22.0560 C   0  0  2  0  0  0  0  0  0  0  0  0
   30.2120   31.8044  -21.7017 O   0  0  0  0  0  0  0  0  0  0  0  0
   29.7748   32.0905  -17.4751 C   0  0  0  0  0  0  0  0  0  0  0  0
   31.0677   32.2433  -18.0650 O   0  0  0  0  0  0  0  0  0  0  0  0
   25.0837   28.3938  -17.4385 C   0  0  1  0  0  0  0  0  0  0  0  0
   26.0919   28.4337  -18.4638 O   0  0  0  0  0  0  0  0  0  0  0  0
   26.1314   29.7308  -21.1625 C   0  0  0  0  0  0  0  0  0  0  0  0
   24.7789   30.1641  -20.7832 O   0  0  0  0  0  0  0  0  0  0  0  0
   29.9462   34.0780  -20.8768 C   0  0  1  0  0  0  0  0  0  0  0  0
   31.3374   34.2004  -20.5724 O   0  0  0  0  0  0  0  0  0  0  0  0
   23.7445   28.0092  -18.0687 C   0  0  0  0  0  0  0  0  0  0  0  0
   23.8552   26.6681  -18.6593 N   0  0  0  0  0  0  0  0  0  0  0  0
  1  2  1  1  0  0  0
  1  7  1  0  0  0  0
  1 30  1  0  0  0  0
  3  4  1  1  0  0  0
  3  9  1  0  0  0  0
  3 39  1  0  0  0  0
  5 10  1  0  0  0  0
  5 26  1  0  0  0  0
  5 32  1  6  0  0  0
  6 12  1  0  0  0  0
  6 36  1  0  0  0  0
  6 19  1  6  0  0  0
  7  8  1  6  0  0  0
  7 14  1  0  0  0  0
  9 16  1  0  0  0  0
 10 11  1  6  0  0  0
 10 18  1  0  0  0  0
 12 13  1  6  0  0  0
 12 20  1  0  0  0  0
 14 15  1  6  0  0  0
 14 22  1  0  0  0  0
 16 17  1  1  0  0  0
 16 24  1  0  0  0  0
 18 19  1  6  0  0  0
 18 25  1  0  0  0  0
 20 21  1  6  0  0  0
 20 27  1  0  0  0  0
 22 23  1  1  0  0  0
 22 29  1  0  0  0  0
 24  2  1  6  0  0  0
 24 31  1  0  0  0  0
 25 26  1  0  0  0  0
 25 33  1  1  0  0  0
 27 28  1  6  0  0  0
 27 35  1  0  0  0  0
 29 30  1  0  0  0  0
 29 37  1  1  0  0  0
 31 32  1  1  0  0  0
 31 39  1  0  0  0  0
 33 34  1  0  0  0  0
 35 36  1  0  0  0  0
 35 41  1  6  0  0  0
 37 38  1  0  0  0  0
 39 40  1  6  0  0  0
 41 42  1  0  0  0  0
M  END
>  <CHROM.1>
161.58349505,-149.86027984,-73.95720068,-173.72416381,-168.32907479,65.09061435
-80.41721147,-52.43065054,-58.38652735,27.72306889,30.69330308,-20.50210223
1.13496066,-0.83661886,-1.16946689

>  <Name>
3c44_lig

>  <RI>
224

>  <Rbt.Current_Directory>
/home/itssahil/PROJECTS/Mol_Feturizer/New_Systems/rnas/3c44

>  <Rbt.Executable>
rbdock ($Id: //depot/dev/client3/rdock/2013.1/src/exe/rbdock.cxx#4 $)

>  <Rbt.Library>
libRbt.so (2013.1, Build901 2013/11/27)

>  <Rbt.Parameter_File>
/export/apps/rDock/src/rDock_2013.1_src/data/scripts/dock_solv.prm

>  <Rbt.Receptor>
prm/blind_docking_60.prm

>  <SCORE>
5.69435

>  <SCORE.INTER>
-4.93364

>  <SCORE.INTER.CONST>
1

>  <SCORE.INTER.POLAR>
0

>  <SCORE.INTER.ROT>
9

>  <SCORE.INTER.SOLV>
33.0695

>  <SCORE.INTER.VDW>
-23.9123

>  <SCORE.INTER.norm>
-0.117468

>  <SCORE.INTRA>
5.71093

>  <SCORE.INTRA.DIHEDRAL>
-5.79045

>  <SCORE.INTRA.DIHEDRAL.0>
14.8538

>  <SCORE.INTRA.POLAR>
0

>  <SCORE.INTRA.POLAR.0>
0

>  <SCORE.INTRA.REPUL>
0.269497

>  <SCORE.INTRA.REPUL.0>
0

>  <SCORE.INTRA.SOLV>
0.131134

>  <SCORE.INTRA.SOLV.lig_0>
-100.951

>  <SCORE.INTRA.VDW>
7.1931

>  <SCORE.INTRA.VDW.0>
-5.71388

>  <SCORE.INTRA.norm>
0.135974

>  <SCORE.RESTR>
4.91707

>  <SCORE.RESTR.CAVITY>
4.91707

>  <SCORE.RESTR.norm>
0.117073

>  <SCORE.SYSTEM>
0

>  <SCORE.SYSTEM.CONST>
0

>  <SCORE.SYSTEM.DIHEDRAL>
0

>  <SCORE.SYSTEM.SOLV>
0

>  <SCORE.SYSTEM.norm>
0

>  <SCORE.heavy>
42

>  <SCORE.norm>
0.13558

>  <RMSD>
15.592

$$$$
3c44_lig
 OpenBabel11021811463D
libRbt.so/2013.1/901 2013/11/27
 42 45  0  0  0  0  0  0  0  0999 V2000
   28.5476   31.0082  -23.6780 C   0  0  2  0  0  0  0  0  0  0  0  0
   28.3194   32.4258  -23.6800 O   0  0  0  0  0  0  0  0  0  0  0  0
   30.2856   34.9221  -21.0168 C   0  0  2  0  0  0  0  0  0  0  0  0
   30.8177   35.7713  -19.9400 N   0  0  0  0  0  0  0  0  0  0  0  0
   28.6258   31.0003  -20.3688 C   0  0  1  0  0  0  0  0  0  0  0  0
   25.9963   28.7218  -18.0001 C   0  0  1  0  0  0  0  0  0  0  0  0
   28.0585   30.4203  -25.0058 C   0  0  2  0  0  0  0  0  0  0  0  0
   28.6836   31.1078  -26.1450 N   0  0  0  0  0  0  0  0  0  0  0  0
   28.8747   35.3696  -21.4096 C   0  0  0  0  0  0  0  0  0  0  0  0
   28.9088   29.7261  -19.5718 C   0  0  2  0  0  0  0  0  0  0  0  0
   28.4490   28.5842  -20.2973 O   0  0  0  0  0  0  0  0  0  0  0  0
   25.7353   29.1992  -16.5677 C   0  0  2  0  0  0  0  0  0  0  0  0
   27.0002   29.6964  -16.0093 N   0  0  0  0  0  0  0  0  0  0  0  0
   26.5367   30.5238  -25.1335 C   0  0  1  0  0  0  0  0  0  0  0  0
   26.1137   29.8243  -26.3079 O   0  0  0  0  0  0  0  0  0  0  0  0
   28.4483   34.5490  -22.6314 C   0  0  2  0  0  0  0  0  0  0  0  0
   27.0710   34.9080  -23.0019 N   0  0  0  0  0  0  0  0  0  0  0  0
   27.9825   29.9576  -18.3796 C   0  0  2  0  0  0  0  0  0  0  0  0
   26.6076   29.7804  -18.7582 O   0  0  0  0  0  0  0  0  0  0  0  0
   25.2213   28.0528  -15.6870 C   0  0  1  0  0  0  0  0  0  0  0  0
   23.8873   27.6968  -16.0593 O   0  0  0  0  0  0  0  0  0  0  0  0
   25.8693   29.9068  -23.9029 C   0  0  2  0  0  0  0  0  0  0  0  0
   24.4547   30.1036  -23.9742 O   0  0  0  0  0  0  0  0  0  0  0  0
   28.5181   33.0355  -22.3925 C   0  0  2  0  0  0  0  0  0  0  0  0
   28.2485   31.4291  -18.1038 C   0  0  2  0  0  0  0  0  0  0  0  0
   28.6005   32.0339  -19.3670 O   0  0  0  0  0  0  0  0  0  0  0  0
   26.1140   26.8175  -15.8164 C   0  0  2  0  0  0  0  0  0  0  0  0
   27.3899   27.1067  -15.2381 O   0  0  0  0  0  0  0  0  0  0  0  0
   26.4181   30.5678  -22.6376 C   0  0  2  0  0  0  0  0  0  0  0  0
   27.8488   30.4059  -22.5725 O   0  0  0  0  0  0  0  0  0  0  0  0
   29.8292   32.5584  -21.7712 C   0  0  2  0  0  0  0  0  0  0  0  0
   29.6790   31.1999  -21.3278 O   0  0  0  0  0  0  0  0  0  0  0  0
   29.3908   31.5603  -17.0942 C   0  0  0  0  0  0  0  0  0  0  0  0
   29.7769   32.9334  -17.0010 O   0  0  0  0  0  0  0  0  0  0  0  0
   26.2659   26.4662  -17.2987 C   0  0  1  0  0  0  0  0  0  0  0  0
   26.8727   27.5839  -17.9710 O   0  0  0  0  0  0  0  0  0  0  0  0
   25.7592   29.8871  -21.4351 C   0  0  0  0  0  0  0  0  0  0  0  0
   24.3339   30.2414  -21.3733 O   0  0  0  0  0  0  0  0  0  0  0  0
   30.2347   33.4520  -20.5930 C   0  0  1  0  0  0  0  0  0  0  0  0
   31.5062   33.0430  -20.0840 O   0  0  0  0  0  0  0  0  0  0  0  0
   27.1312   25.2237  -17.5134 C   0  0  0  0  0  0  0  0  0  0  0  0
   28.4832   25.4808  -16.9979 N   0  0  0  0  0  0  0  0  0  0  0  0
  1  2  1  6  0  0  0
  1  7  1  0  0  0  0
  1 30  1  0  0  0  0
  3  4  1  1  0  0  0
  3  9  1  0  0  0  0
  3 39  1  0  0  0  0
  5 10  1  0  0  0  0
  5 26  1  0  0  0  0
  5 32  1  6  0  0  0
  6 12  1  0  0  0  0
  6 36  1  0  0  0  0
  6 19  1  6  0  0  0
  7  8  1  6  0  0  0
  7 14  1  0  0  0  0
  9 16  1  0  0  0  0
 10 11  1  6  0  0  0
 10 18  1  0  0  0  0
 12 13  1  1  0  0  0
 12 20  1  0  0  0  0
 14 15  1  6  0  0  0
 14 22  1  0  0  0  0
 16 17  1  1  0  0  0
 16 24  1  0  0  0  0
 18 19  1  6  0  0  0
 18 25  1  0  0  0  0
 20 21  1  6  0  0  0
 20 27  1  0  0  0  0
 22 23  1  6  0  0  0
 22 29  1  0  0  0  0
 24  2  1  6  0  0  0
 24 31  1  0  0  0  0
 25 26  1  0  0  0  0
 25 33  1  1  0  0  0
 27 28  1  6  0  0  0
 27 35  1  0  0  0  0
 29 30  1  0  0  0  0
 29 37  1  1  0  0  0
 31 32  1  1  0  0  0
 31 39  1  0  0  0  0
 33 34  1  0  0  0  0
 35 36  1  0  0  0  0
 35 41  1  1  0  0  0
 37 38  1  0  0  0  0
 39 40  1  6  0  0  0
 41 42  1  0  0  0  0
M  END
>  <CHROM.1>
169.36482263,-157.31401013,74.01931243,119.52324459,171.43605456,170.86868103
-69.52337617,-58.34157388,-61.79414403,27.67572728,30.55883600,-20.28314694
1.20634446,-0.92842237,-1.22067625

>  <Name>
3c44_lig

>  <RI>
224

>  <Rbt.Current_Directory>
/home/itssahil/PROJECTS/Mol_Feturizer/New_Systems/rnas/3c44

>  <Rbt.Executable>
rbdock ($Id: //depot/dev/client3/rdock/2013.1/src/exe/rbdock.cxx#4 $)

>  <Rbt.Library>
libRbt.so (2013.1, Build901 2013/11/27)

>  <Rbt.Parameter_File>
/export/apps/rDock/src/rDock_2013.1_src/data/scripts/dock_solv.prm

>  <Rbt.Receptor>
prm/blind_docking_60.prm

>  <SCORE>
18.3465

>  <SCORE.INTER>
0.957077

>  <SCORE.INTER.CONST>
1

>  <SCORE.INTER.POLAR>
-0.0119262

>  <SCORE.INTER.ROT>
9

>  <SCORE.INTER.SOLV>
34.4219

>  <SCORE.INTER.VDW>
-20.3962

>  <SCORE.INTER.norm>
0.0227876

>  <SCORE.INTRA>
12.3035

>  <SCORE.INTRA.DIHEDRAL>
-3.12734

>  <SCORE.INTRA.DIHEDRAL.0>
14.8538

>  <SCORE.INTRA.POLAR>
0

>  <SCORE.INTRA.POLAR.0>
0

>  <SCORE.INTRA.REPUL>
0.0264182

>  <SCORE.INTRA.REPUL.0>
0

>  <SCORE.INTRA.SOLV>
1.54915

>  <SCORE.INTRA.SOLV.lig_0>
-100.951

>  <SCORE.INTRA.VDW>
12.9605

>  <SCORE.INTRA.VDW.0>
-5.71388

>  <SCORE.INTRA.norm>
0.29294

>  <SCORE.RESTR>
5.08594

>  <SCORE.RESTR.CAVITY>
5.08594

>  <SCORE.RESTR.norm>
0.121094

>  <SCORE.SYSTEM>
0

>  <SCORE.SYSTEM.CONST>
0

>  <SCORE.SYSTEM.DIHEDRAL>
0

>  <SCORE.SYSTEM.SOLV>
0

>  <SCORE.SYSTEM.norm>
0

>  <SCORE.heavy>
42

>  <SCORE.norm>
0.436821

>  <RMSD>
15.645

$$$$
3c44_lig
 OpenBabel11021811463D
libRbt.so/2013.1/901 2013/11/27
 42 45  0  0  0  0  0  0  0  0999 V2000
   28.4562   31.0551  -23.8285 C   0  0  2  0  0  0  0  0  0  0  0  0
   28.0610   32.4354  -23.8476 O   0  0  0  0  0  0  0  0  0  0  0  0
   29.3741   35.4602  -21.3344 C   0  0  2  0  0  0  0  0  0  0  0  0
   29.7128   36.4439  -20.2945 N   0  0  0  0  0  0  0  0  0  0  0  0
   29.2089   31.2102  -20.6456 C   0  0  1  0  0  0  0  0  0  0  0  0
   27.8031   28.2570  -17.9689 C   0  0  1  0  0  0  0  0  0  0  0  0
   27.8592   30.3463  -25.0488 C   0  0  2  0  0  0  0  0  0  0  0  0
   28.2299   31.0397  -26.2909 N   0  0  0  0  0  0  0  0  0  0  0  0
   27.8592   35.4046  -21.5517 C   0  0  0  0  0  0  0  0  0  0  0  0
   30.0159   30.1550  -19.8877 C   0  0  2  0  0  0  0  0  0  0  0  0
   29.9402   28.9008  -20.5680 O   0  0  0  0  0  0  0  0  0  0  0  0
   27.2313   27.0710  -18.7526 C   0  0  2  0  0  0  0  0  0  0  0  0
   25.9843   27.5030  -19.3988 N   0  0  0  0  0  0  0  0  0  0  0  0
   26.3332   30.2686  -24.9561 C   0  0  1  0  0  0  0  0  0  0  0  0
   25.8362   29.4646  -26.0303 O   0  0  0  0  0  0  0  0  0  0  0  0
   27.5927   34.4828  -22.7464 C   0  0  2  0  0  0  0  0  0  0  0  0
   26.1416   34.3554  -22.9484 N   0  0  0  0  0  0  0  0  0  0  0  0
   29.1891   30.0707  -18.6062 C   0  0  2  0  0  0  0  0  0  0  0  0
   27.9459   29.3900  -18.8435 O   0  0  0  0  0  0  0  0  0  0  0  0
   26.9246   25.8893  -17.8233 C   0  0  1  0  0  0  0  0  0  0  0  0
   28.1378   25.2945  -17.3551 O   0  0  0  0  0  0  0  0  0  0  0  0
   25.9254   29.6452  -23.6200 C   0  0  2  0  0  0  0  0  0  0  0  0
   24.5015   29.6753  -23.4905 O   0  0  0  0  0  0  0  0  0  0  0  0
   28.1928   33.0823  -22.5698 C   0  0  2  0  0  0  0  0  0  0  0  0
   28.9209   31.5456  -18.3519 C   0  0  2  0  0  0  0  0  0  0  0  0
   28.9023   32.1952  -19.6415 O   0  0  0  0  0  0  0  0  0  0  0  0
   26.1000   26.3392  -16.6161 C   0  0  2  0  0  0  0  0  0  0  0  0
   24.7988   26.7288  -17.0646 O   0  0  0  0  0  0  0  0  0  0  0  0
   26.5635   30.4302  -22.4728 C   0  0  2  0  0  0  0  0  0  0  0  0
   27.9980   30.4361  -22.6120 O   0  0  0  0  0  0  0  0  0  0  0  0
   29.6510   33.0774  -22.1155 C   0  0  2  0  0  0  0  0  0  0  0  0
   30.0172   31.7497  -21.7059 O   0  0  0  0  0  0  0  0  0  0  0  0
   30.0268   32.1191  -17.4633 C   0  0  0  0  0  0  0  0  0  0  0  0
   29.6799   33.4541  -17.0883 O   0  0  0  0  0  0  0  0  0  0  0  0
   26.8077   27.5168  -15.9407 C   0  0  1  0  0  0  0  0  0  0  0  0
   26.9125   28.5906  -16.8923 O   0  0  0  0  0  0  0  0  0  0  0  0
   26.1677   29.7430  -21.1634 C   0  0  0  0  0  0  0  0  0  0  0  0
   24.8131   30.1543  -20.7673 O   0  0  0  0  0  0  0  0  0  0  0  0
   29.8682   34.0607  -20.9592 C   0  0  1  0  0  0  0  0  0  0  0  0
   31.2534   34.1061  -20.6097 O   0  0  0  0  0  0  0  0  0  0  0  0
   26.0544   28.0142  -14.7064 C   0  0  0  0  0  0  0  0  0  0  0  0
   24.7013   28.4304  -15.1006 N   0  0  0  0  0  0  0  0  0  0  0  0
  1  2  1  1  0  0  0
  1  7  1  0  0  0  0
  1 30  1  0  0  0  0
  3  4  1  1  0  0  0
  3  9  1  0  0  0  0
  3 39  1  0  0  0  0
  5 10  1  0  0  0  0
  5 26  1  0  0  0  0
  5 32  1  6  0  0  0
  6 12  1  0  0  0  0
  6 36  1  0  0  0  0
  6 19  1  6  0  0  0
  7  8  1  6  0  0  0
  7 14  1  0  0  0  0
  9 16  1  0  0  0  0
 10 11  1  6  0  0  0
 10 18  1  0  0  0  0
 12 13  1  1  0  0  0
 12 20  1  0  0  0  0
 14 15  1  6  0  0  0
 14 22  1  0  0  0  0
 16 17  1  1  0  0  0
 16 24  1  0  0  0  0
 18 19  1  6  0  0  0
 18 25  1  0  0  0  0
 20 21  1  1  0  0  0
 20 27  1  0  0  0  0
 22 23  1  1  0  0  0
 22 29  1  0  0  0  0
 24  2  1  6  0  0  0
 24 31  1  0  0  0  0
 25 26  1  0  0  0  0
 25 33  1  1  0  0  0
 27 28  1  6  0  0  0
 27 35  1  0  0  0  0
 29 30  1  0  0  0  0
 29 37  1  1  0  0  0
 31 32  1  1  0  0  0
 31 39  1  0  0  0  0
 33 34  1  0  0  0  0
 35 36  1  0  0  0  0
 35 41  1  1  0  0  0
 37 38  1  0  0  0  0
 39 40  1  6  0  0  0
 41 42  1  0  0  0  0
M  END
>  <CHROM.1>
161.25536397,-154.70217230,-138.00566161,123.36398320,-174.16090418,-172.63661270
-80.81417534,-58.18422365,-58.95570116,27.74761919,30.59225236,-20.45933483
1.17855529,-1.01027218,-1.16163049

>  <Name>
3c44_lig

>  <RI>
224

>  <Rbt.Current_Directory>
/home/itssahil/PROJECTS/Mol_Feturizer/New_Systems/rnas/3c44

>  <Rbt.Executable>
rbdock ($Id: //depot/dev/client3/rdock/2013.1/src/exe/rbdock.cxx#4 $)

>  <Rbt.Library>
libRbt.so (2013.1, Build901 2013/11/27)

>  <Rbt.Parameter_File>
/export/apps/rDock/src/rDock_2013.1_src/data/scripts/dock_solv.prm

>  <Rbt.Receptor>
prm/blind_docking_60.prm

>  <SCORE>
7.66754

>  <SCORE.INTER>
-8.46978

>  <SCORE.INTER.CONST>
1

>  <SCORE.INTER.POLAR>
0

>  <SCORE.INTER.ROT>
9

>  <SCORE.INTER.SOLV>
33.1291

>  <SCORE.INTER.VDW>
-26.2895

>  <SCORE.INTER.norm>
-0.201661

>  <SCORE.INTRA>
10.8122

>  <SCORE.INTRA.DIHEDRAL>
3.9118

>  <SCORE.INTRA.DIHEDRAL.0>
14.8538

>  <SCORE.INTRA.POLAR>
0

>  <SCORE.INTRA.POLAR.0>
0

>  <SCORE.INTRA.REPUL>
0.196951

>  <SCORE.INTRA.REPUL.0>
0

>  <SCORE.INTRA.SOLV>
0.0619732

>  <SCORE.INTRA.SOLV.lig_0>
-100.951

>  <SCORE.INTRA.VDW>
7.84054

>  <SCORE.INTRA.VDW.0>
-5.71388

>  <SCORE.INTRA.norm>
0.257433

>  <SCORE.RESTR>
5.32513

>  <SCORE.RESTR.CAVITY>
5.32513

>  <SCORE.RESTR.norm>
0.126789

>  <SCORE.SYSTEM>
0

>  <SCORE.SYSTEM.CONST>
0

>  <SCORE.SYSTEM.DIHEDRAL>
0

>  <SCORE.SYSTEM.SOLV>
0

>  <SCORE.SYSTEM.norm>
0

>  <SCORE.heavy>
42

>  <SCORE.norm>
0.18256

>  <RMSD>
15.669

$$$$
3c44_lig
 OpenBabel11021811463D
libRbt.so/2013.1/901 2013/11/27
 42 45  0  0  0  0  0  0  0  0999 V2000
   29.9688   31.6491  -21.9318 C   0  0  2  0  0  0  0  0  0  0  0  0
   28.6124   31.4690  -21.4966 O   0  0  0  0  0  0  0  0  0  0  0  0
   25.0600   32.4044  -23.4190 C   0  0  2  0  0  0  0  0  0  0  0  0
   23.8839   32.6365  -24.2715 N   0  0  0  0  0  0  0  0  0  0  0  0
   26.7506   28.8609  -20.5921 C   0  0  1  0  0  0  0  0  0  0  0  0
   27.0271   27.6356  -16.9226 C   0  0  1  0  0  0  0  0  0  0  0  0
   30.9152   31.0747  -20.8723 C   0  0  2  0  0  0  0  0  0  0  0  0
   30.5812   29.6742  -20.5755 N   0  0  0  0  0  0  0  0  0  0  0  0
   26.3255   32.9531  -24.0843 C   0  0  0  0  0  0  0  0  0  0  0  0
   28.2165   28.9430  -20.1639 C   0  0  2  0  0  0  0  0  0  0  0  0
   28.9127   27.7659  -20.5780 O   0  0  0  0  0  0  0  0  0  0  0  0
   27.0241   26.2373  -16.2962 C   0  0  2  0  0  0  0  0  0  0  0  0
   26.4100   25.3050  -17.2517 N   0  0  0  0  0  0  0  0  0  0  0  0
   30.8588   31.8873  -19.5763 C   0  0  1  0  0  0  0  0  0  0  0  0
   31.8678   31.4137  -18.6790 O   0  0  0  0  0  0  0  0  0  0  0  0
   27.4758   32.8189  -23.0808 C   0  0  2  0  0  0  0  0  0  0  0  0
   28.7240   33.2802  -23.7071 N   0  0  0  0  0  0  0  0  0  0  0  0
   28.0436   28.9046  -18.6469 C   0  0  2  0  0  0  0  0  0  0  0  0
   27.6719   27.5878  -18.2076 O   0  0  0  0  0  0  0  0  0  0  0  0
   26.2147   26.2161  -14.9930 C   0  0  1  0  0  0  0  0  0  0  0  0
   26.9060   26.9294  -13.9643 O   0  0  0  0  0  0  0  0  0  0  0  0
   31.0991   33.3671  -19.8806 C   0  0  2  0  0  0  0  0  0  0  0  0
   30.9368   34.1358  -18.6857 O   0  0  0  0  0  0  0  0  0  0  0  0
   27.6736   31.3817  -22.5828 C   0  0  2  0  0  0  0  0  0  0  0  0
   26.8638   29.8489  -18.4785 C   0  0  2  0  0  0  0  0  0  0  0  0
   26.0772   29.7540  -19.6858 O   0  0  0  0  0  0  0  0  0  0  0  0
   24.8374   26.8513  -15.1910 C   0  0  2  0  0  0  0  0  0  0  0  0
   24.0618   26.0139  -16.0531 O   0  0  0  0  0  0  0  0  0  0  0  0
   30.1005   33.8411  -20.9376 C   0  0  2  0  0  0  0  0  0  0  0  0
   30.2312   33.0501  -22.1352 O   0  0  0  0  0  0  0  0  0  0  0  0
   26.3889   30.6939  -22.1256 C   0  0  2  0  0  0  0  0  0  0  0  0
   26.6348   29.2878  -21.9607 O   0  0  0  0  0  0  0  0  0  0  0  0
   27.3778   31.2747  -18.2678 C   0  0  0  0  0  0  0  0  0  0  0  0
   28.2417   31.2967  -17.1293 O   0  0  0  0  0  0  0  0  0  0  0  0
   25.0141   28.2398  -15.8114 C   0  0  1  0  0  0  0  0  0  0  0  0
   25.6736   28.0898  -17.0810 O   0  0  0  0  0  0  0  0  0  0  0  0
   30.4099   35.3088  -21.2435 C   0  0  0  0  0  0  0  0  0  0  0  0
   29.9836   36.1586  -20.1222 O   0  0  0  0  0  0  0  0  0  0  0  0
   25.2594   30.9126  -23.1392 C   0  0  1  0  0  0  0  0  0  0  0  0
   24.0455   30.3379  -22.6501 O   0  0  0  0  0  0  0  0  0  0  0  0
   23.6783   28.9536  -16.0229 C   0  0  0  0  0  0  0  0  0  0  0  0
   22.9434   28.9917  -14.7509 N   0  0  0  0  0  0  0  0  0  0  0  0
  1  2  1  1  0  0  0
  1  7  1  0  0  0  0
  1 30  1  0  0  0  0
  3  4  1  6  0  0  0
  3  9  1  0  0  0  0
  3 39  1  0  0  0  0
  5 10  1  0  0  0  0
  5 26  1  0  0  0  0
  5 32  1  6  0  0  0
  6 12  1  0  0  0  0
  6 36  1  0  0  0  0
  6 19  1  6  0  0  0
  7  8  1  1  0  0  0
  7 14  1  0  0  0  0
  9 16  1  0  0  0  0
 10 11  1  6  0  0  0
 10 18  1  0  0  0  0
 12 13  1  6  0  0  0
 12 20  1  0  0  0  0
 14 15  1  1  0  0  0
 14 22  1  0  0  0  0
 16 17  1  6  0  0  0
 16 24  1  0  0  0  0
 18 19  1  6  0  0  0
 18 25  1  0  0  0  0
 20 21  1  1  0  0  0
 20 27  1  0  0  0  0
 22 23  1  1  0  0  0
 22 29  1  0  0  0  0
 24  2  1  1  0  0  0
 24 31  1  0  0  0  0
 25 26  1  0  0  0  0
 25 33  1  6  0  0  0
 27 28  1  6  0  0  0
 27 35  1  0  0  0  0
 29 30  1  0  0  0  0
 29 37  1  6  0  0  0
 31 32  1  6  0  0  0
 31 39  1  0  0  0  0
 33 34  1  0  0  0  0
 35 36  1  0  0  0  0
 35 41  1  6  0  0  0
 37 38  1  0  0  0  0
 39 40  1  1  0  0  0
 41 42  1  0  0  0  0
M  END
>  <CHROM.1>
-152.97184947,-90.54649630,-163.10043692,-158.12318046,-76.80088180,-57.39092229
-72.93012656,104.41909395,54.33307199,27.51193626,30.32331818,-19.57747995
-1.13154880,0.47815702,2.14557358

>  <Name>
3c44_lig

>  <RI>
224

>  <Rbt.Current_Directory>
/home/itssahil/PROJECTS/Mol_Feturizer/New_Systems/rnas/3c44

>  <Rbt.Executable>
rbdock ($Id: //depot/dev/client3/rdock/2013.1/src/exe/rbdock.cxx#4 $)

>  <Rbt.Library>
libRbt.so (2013.1, Build901 2013/11/27)

>  <Rbt.Parameter_File>
/export/apps/rDock/src/rDock_2013.1_src/data/scripts/dock_solv.prm

>  <Rbt.Receptor>
prm/blind_docking_60.prm

>  <SCORE>
12.5273

>  <SCORE.INTER>
-8.92298

>  <SCORE.INTER.CONST>
1

>  <SCORE.INTER.POLAR>
-1.45014

>  <SCORE.INTER.ROT>
9

>  <SCORE.INTER.SOLV>
25.9105

>  <SCORE.INTER.VDW>
-19.3517

>  <SCORE.INTER.norm>
-0.212452

>  <SCORE.INTRA>
14.247

>  <SCORE.INTRA.DIHEDRAL>
3.58865

>  <SCORE.INTRA.DIHEDRAL.0>
14.8538

>  <SCORE.INTRA.POLAR>
0

>  <SCORE.INTRA.POLAR.0>
0

>  <SCORE.INTRA.REPUL>
0

>  <SCORE.INTRA.REPUL.0>
0

>  <SCORE.INTRA.SOLV>
3.65267

>  <SCORE.INTRA.SOLV.lig_0>
-100.951

>  <SCORE.INTRA.VDW>
10.6264

>  <SCORE.INTRA.VDW.0>
-5.71388

>  <SCORE.INTRA.norm>
0.339215

>  <SCORE.RESTR>
7.20326

>  <SCORE.RESTR.CAVITY>
7.20326

>  <SCORE.RESTR.norm>
0.171506

>  <SCORE.SYSTEM>
0

>  <SCORE.SYSTEM.CONST>
0

>  <SCORE.SYSTEM.DIHEDRAL>
0

>  <SCORE.SYSTEM.SOLV>
0

>  <SCORE.SYSTEM.norm>
0

>  <SCORE.heavy>
42

>  <SCORE.norm>
0.298269

>  <RMSD>
15.712

$$$$
3c44_lig
 OpenBabel11021811463D
libRbt.so/2013.1/901 2013/11/27
 42 45  0  0  0  0  0  0  0  0999 V2000
   28.2786   31.2773  -23.3577 C   0  0  2  0  0  0  0  0  0  0  0  0
   28.9797   32.4450  -22.9031 O   0  0  0  0  0  0  0  0  0  0  0  0
   31.6992   32.9248  -19.8106 C   0  0  2  0  0  0  0  0  0  0  0  0
   32.4998   33.0496  -18.5829 N   0  0  0  0  0  0  0  0  0  0  0  0
   29.5601   29.4166  -20.2590 C   0  0  1  0  0  0  0  0  0  0  0  0
   28.1342   28.3880  -16.4500 C   0  0  1  0  0  0  0  0  0  0  0  0
   27.6385   31.5752  -24.7177 C   0  0  2  0  0  0  0  0  0  0  0  0
   28.6437   32.0589  -25.6751 N   0  0  0  0  0  0  0  0  0  0  0  0
   30.4802   33.8501  -19.7563 C   0  0  0  0  0  0  0  0  0  0  0  0
   28.4835   30.2946  -19.6193 C   0  0  2  0  0  0  0  0  0  0  0  0
   29.0932   31.3623  -18.8913 O   0  0  0  0  0  0  0  0  0  0  0  0
   28.5112   26.9030  -16.4744 C   0  0  2  0  0  0  0  0  0  0  0  0
   28.2063   26.3714  -17.8099 N   0  0  0  0  0  0  0  0  0  0  0  0
   26.5251   32.6181  -24.5924 C   0  0  1  0  0  0  0  0  0  0  0  0
   25.8551   32.7454  -25.8503 O   0  0  0  0  0  0  0  0  0  0  0  0
   29.7843   33.7854  -21.1200 C   0  0  2  0  0  0  0  0  0  0  0  0
   28.5710   34.6160  -21.0868 N   0  0  0  0  0  0  0  0  0  0  0  0
   27.8937   29.2954  -18.6261 C   0  0  2  0  0  0  0  0  0  0  0  0
   28.7949   29.0718  -17.5293 O   0  0  0  0  0  0  0  0  0  0  0  0
   27.7116   26.1115  -15.4313 C   0  0  1  0  0  0  0  0  0  0  0  0
   28.1507   26.4405  -14.1107 O   0  0  0  0  0  0  0  0  0  0  0  0
   25.5234   32.1819  -23.5216 C   0  0  2  0  0  0  0  0  0  0  0  0
   24.5469   33.2090  -23.3303 O   0  0  0  0  0  0  0  0  0  0  0  0
   29.3966   32.3590  -21.5292 C   0  0  2  0  0  0  0  0  0  0  0  0
   27.8288   28.0481  -19.4933 C   0  0  2  0  0  0  0  0  0  0  0  0
   28.9004   28.1523  -20.4557 O   0  0  0  0  0  0  0  0  0  0  0  0
   26.2159   26.4124  -15.5410 C   0  0  2  0  0  0  0  0  0  0  0  0
   25.7272   25.8821  -16.7764 O   0  0  0  0  0  0  0  0  0  0  0  0
   26.2604   31.9207  -22.2072 C   0  0  2  0  0  0  0  0  0  0  0  0
   27.2714   30.9111  -22.3962 O   0  0  0  0  0  0  0  0  0  0  0  0
   30.5191   31.3349  -21.3739 C   0  0  2  0  0  0  0  0  0  0  0  0
   29.9759   30.0107  -21.5011 O   0  0  0  0  0  0  0  0  0  0  0  0
   26.4682   27.9821  -20.1905 C   0  0  0  0  0  0  0  0  0  0  0  0
   26.5589   28.6407  -21.4558 O   0  0  0  0  0  0  0  0  0  0  0  0
   26.0081   27.9284  -15.4904 C   0  0  1  0  0  0  0  0  0  0  0  0
   26.7114   28.5209  -16.5966 O   0  0  0  0  0  0  0  0  0  0  0  0
   25.2280   31.4422  -21.1832 C   0  0  0  0  0  0  0  0  0  0  0  0
   25.8858   31.1539  -19.9005 O   0  0  0  0  0  0  0  0  0  0  0  0
   31.2159   31.4870  -20.0166 C   0  0  1  0  0  0  0  0  0  0  0  0
   32.3178   30.5808  -19.9284 O   0  0  0  0  0  0  0  0  0  0  0  0
   24.5305   28.3132  -15.5734 C   0  0  0  0  0  0  0  0  0  0  0  0
   23.9980   27.9088  -16.8820 N   0  0  0  0  0  0  0  0  0  0  0  0
  1  2  1  1  0  0  0
  1  7  1  0  0  0  0
  1 30  1  0  0  0  0
  3  4  1  1  0  0  0
  3  9  1  0  0  0  0
  3 39  1  0  0  0  0
  5 10  1  0  0  0  0
  5 26  1  0  0  0  0
  5 32  1  6  0  0  0
  6 12  1  0  0  0  0
  6 36  1  0  0  0  0
  6 19  1  6  0  0  0
  7  8  1  6  0  0  0
  7 14  1  0  0  0  0
  9 16  1  0  0  0  0
 10 11  1  1  0  0  0
 10 18  1  0  0  0  0
 12 13  1  6  0  0  0
 12 20  1  0  0  0  0
 14 15  1  6  0  0  0
 14 22  1  0  0  0  0
 16 17  1  1  0  0  0
 16 24  1  0  0  0  0
 18 19  1  1  0  0  0
 18 25  1  0  0  0  0
 20 21  1  1  0  0  0
 20 27  1  0  0  0  0
 22 23  1  1  0  0  0
 22 29  1  0  0  0  0
 24  2  1  6  0  0  0
 24 31  1  0  0  0  0
 25 26  1  0  0  0  0
 25 33  1  6  0  0  0
 27 28  1  6  0  0  0
 27 35  1  0  0  0  0
 29 30  1  0  0  0  0
 29 37  1  1  0  0  0
 31 32  1  1  0  0  0
 31 39  1  0  0  0  0
 33 34  1  0  0  0  0
 35 36  1  0  0  0  0
 35 41  1  6  0  0  0
 37 38  1  0  0  0  0
 39 40  1  6  0  0  0
 41 42  1  0  0  0  0
M  END
>  <CHROM.1>
168.70104933,59.59383684,101.31657039,166.62251391,-165.72097476,90.97887819
179.09958462,-91.02865908,-64.41724707,27.94725001,30.20062772,-19.95898273
1.44231143,-0.36276661,-0.96238615

>  <Name>
3c44_lig

>  <RI>
224

>  <Rbt.Current_Directory>
/home/itssahil/PROJECTS/Mol_Feturizer/New_Systems/rnas/3c44

>  <Rbt.Executable>
rbdock ($Id: //depot/dev/client3/rdock/2013.1/src/exe/rbdock.cxx#4 $)

>  <Rbt.Library>
libRbt.so (2013.1, Build901 2013/11/27)

>  <Rbt.Parameter_File>
/export/apps/rDock/src/rDock_2013.1_src/data/scripts/dock_solv.prm

>  <Rbt.Receptor>
prm/blind_docking_60.prm

>  <SCORE>
30.5777

>  <SCORE.INTER>
4.89618

>  <SCORE.INTER.CONST>
1

>  <SCORE.INTER.POLAR>
-0.796678

>  <SCORE.INTER.ROT>
9

>  <SCORE.INTER.SOLV>
27.0367

>  <SCORE.INTER.VDW>
-12.6925

>  <SCORE.INTER.norm>
0.116576

>  <SCORE.INTRA>
19.6035

>  <SCORE.INTRA.DIHEDRAL>
0.194987

>  <SCORE.INTRA.DIHEDRAL.0>
14.8538

>  <SCORE.INTRA.POLAR>
0

>  <SCORE.INTRA.POLAR.0>
0

>  <SCORE.INTRA.REPUL>
0.737404

>  <SCORE.INTRA.REPUL.0>
0

>  <SCORE.INTRA.SOLV>
5.34191

>  <SCORE.INTRA.SOLV.lig_0>
-100.951

>  <SCORE.INTRA.VDW>
13.1481

>  <SCORE.INTRA.VDW.0>
-5.71388

>  <SCORE.INTRA.norm>
0.46675

>  <SCORE.RESTR>
6.07803

>  <SCORE.RESTR.CAVITY>
6.07803

>  <SCORE.RESTR.norm>
0.144715

>  <SCORE.SYSTEM>
0

>  <SCORE.SYSTEM.CONST>
0

>  <SCORE.SYSTEM.DIHEDRAL>
0

>  <SCORE.SYSTEM.SOLV>
0

>  <SCORE.SYSTEM.norm>
0

>  <SCORE.heavy>
42

>  <SCORE.norm>
0.728041

>  <RMSD>
15.791

$$$$
3c44_lig
 OpenBabel11021811463D
libRbt.so/2013.1/901 2013/11/27
 42 45  0  0  0  0  0  0  0  0999 V2000
   27.2035   33.1531  -23.9426 C   0  0  2  0  0  0  0  0  0  0  0  0
   28.5539   33.0234  -23.4723 O   0  0  0  0  0  0  0  0  0  0  0  0
   30.1370   35.4852  -20.5358 C   0  0  2  0  0  0  0  0  0  0  0  0
   30.5589   36.2640  -19.3614 N   0  0  0  0  0  0  0  0  0  0  0  0
   29.3767   31.1912  -20.6096 C   0  0  1  0  0  0  0  0  0  0  0  0
   27.4573   28.1025  -18.4189 C   0  0  1  0  0  0  0  0  0  0  0  0
   26.3687   31.9904  -23.3957 C   0  0  2  0  0  0  0  0  0  0  0  0
   26.4692   31.9167  -21.9310 N   0  0  0  0  0  0  0  0  0  0  0  0
   28.6309   35.6346  -20.7697 C   0  0  0  0  0  0  0  0  0  0  0  0
   30.0401   30.0940  -19.7759 C   0  0  2  0  0  0  0  0  0  0  0  0
   30.1415   28.8923  -20.5423 O   0  0  0  0  0  0  0  0  0  0  0  0
   26.3774   27.2780  -19.1273 C   0  0  2  0  0  0  0  0  0  0  0  0
   25.2619   28.1726  -19.4661 N   0  0  0  0  0  0  0  0  0  0  0  0
   26.8150   30.6544  -23.9951 C   0  0  1  0  0  0  0  0  0  0  0  0
   25.9105   29.6263  -23.5802 O   0  0  0  0  0  0  0  0  0  0  0  0
   28.2914   34.9307  -22.0878 C   0  0  2  0  0  0  0  0  0  0  0  0
   26.8402   34.9999  -22.3164 N   0  0  0  0  0  0  0  0  0  0  0  0
   28.9702   29.9045  -18.7025 C   0  0  2  0  0  0  0  0  0  0  0  0
   27.8221   29.2266  -19.2388 O   0  0  0  0  0  0  0  0  0  0  0  0
   25.8548   26.1552  -18.2216 C   0  0  1  0  0  0  0  0  0  0  0  0
   26.8503   25.1416  -18.0582 O   0  0  0  0  0  0  0  0  0  0  0  0
   26.8189   30.7461  -25.5221 C   0  0  2  0  0  0  0  0  0  0  0  0
   27.3406   29.5347  -26.0747 O   0  0  0  0  0  0  0  0  0  0  0  0
   28.7269   33.4603  -22.1128 C   0  0  2  0  0  0  0  0  0  0  0  0
   28.6138   31.3530  -18.4077 C   0  0  2  0  0  0  0  0  0  0  0  0
   28.8424   32.0955  -19.6250 O   0  0  0  0  0  0  0  0  0  0  0  0
   25.4718   26.6947  -16.8425 C   0  0  2  0  0  0  0  0  0  0  0  0
   24.3278   27.5424  -16.9794 O   0  0  0  0  0  0  0  0  0  0  0  0
   27.6849   31.9276  -25.9618 C   0  0  2  0  0  0  0  0  0  0  0  0
   27.1888   33.1504  -25.3824 O   0  0  0  0  0  0  0  0  0  0  0  0
   30.1643   33.2239  -21.6538 C   0  0  2  0  0  0  0  0  0  0  0  0
   30.3702   31.8180  -21.4395 O   0  0  0  0  0  0  0  0  0  0  0  0
   29.4966   31.8743  -17.2717 C   0  0  0  0  0  0  0  0  0  0  0  0
   30.7920   32.1833  -17.7906 O   0  0  0  0  0  0  0  0  0  0  0  0
   26.6541   27.4804  -16.2694 C   0  0  1  0  0  0  0  0  0  0  0  0
   26.9495   28.5712  -17.1595 O   0  0  0  0  0  0  0  0  0  0  0  0
   27.6196   32.0081  -27.4891 C   0  0  0  0  0  0  0  0  0  0  0  0
   28.5922   32.9927  -27.9845 O   0  0  0  0  0  0  0  0  0  0  0  0
   30.4628   33.9993  -20.3651 C   0  0  1  0  0  0  0  0  0  0  0  0
   31.8357   33.8357  -20.0029 O   0  0  0  0  0  0  0  0  0  0  0  0
   26.3581   28.0377  -14.8765 C   0  0  0  0  0  0  0  0  0  0  0  0
   26.1061   26.9228  -13.9529 N   0  0  0  0  0  0  0  0  0  0  0  0
  1  2  1  6  0  0  0
  1  7  1  0  0  0  0
  1 30  1  0  0  0  0
  3  4  1  1  0  0  0
  3  9  1  0  0  0  0
  3 39  1  0  0  0  0
  5 10  1  0  0  0  0
  5 26  1  0  0  0  0
  5 32  1  6  0  0  0
  6 12  1  0  0  0  0
  6 36  1  0  0  0  0
  6 19  1  6  0  0  0
  7  8  1  1  0  0  0
  7 14  1  0  0  0  0
  9 16  1  0  0  0  0
 10 11  1  6  0  0  0
 10 18  1  0  0  0  0
 12 13  1  1  0  0  0
 12 20  1  0  0  0  0
 14 15  1  6  0  0  0
 14 22  1  0  0  0  0
 16 17  1  1  0  0  0
 16 24  1  0  0  0  0
 18 19  1  6  0  0  0
 18 25  1  0  0  0  0
 20 21  1  1  0  0  0
 20 27  1  0  0  0  0
 22 23  1  6  0  0  0
 22 29  1  0  0  0  0
 24  2  1  6  0  0  0
 24 31  1  0  0  0  0
 25 26  1  0  0  0  0
 25 33  1  1  0  0  0
 27 28  1  6  0  0  0
 27 35  1  0  0  0  0
 29 30  1  0  0  0  0
 29 37  1  6  0  0  0
 31 32  1  1  0  0  0
 31 39  1  0  0  0  0
 33 34  1  0  0  0  0
 35 36  1  0  0  0  0
 35 41  1  1  0  0  0
 37 38  1  0  0  0  0
 39 40  1  6  0  0  0
 41 42  1  0  0  0  0
M  END
>  <CHROM.1>
-78.67377273,-145.60935035,-171.21807133,128.88146154,-58.93280283,77.96216604
-171.35786727,-50.53500143,61.93780863,27.97386917,30.96416767,-20.75144141
1.23371914,-0.98108525,-1.19947276

>  <Name>
3c44_lig

>  <RI>
224

>  <Rbt.Current_Directory>
/home/itssahil/PROJECTS/Mol_Feturizer/New_Systems/rnas/3c44

>  <Rbt.Executable>
rbdock ($Id: //depot/dev/client3/rdock/2013.1/src/exe/rbdock.cxx#4 $)

>  <Rbt.Library>
libRbt.so (2013.1, Build901 2013/11/27)

>  <Rbt.Parameter_File>
/export/apps/rDock/src/rDock_2013.1_src/data/scripts/dock_solv.prm

>  <Rbt.Receptor>
prm/blind_docking_60.prm

>  <SCORE>
1.36144

>  <SCORE.INTER>
-14.0645

>  <SCORE.INTER.CONST>
1

>  <SCORE.INTER.POLAR>
-0.757151

>  <SCORE.INTER.ROT>
9

>  <SCORE.INTER.SOLV>
27.082

>  <SCORE.INTER.VDW>
-25.4798

>  <SCORE.INTER.norm>
-0.334869

>  <SCORE.INTRA>
9.46865

>  <SCORE.INTRA.DIHEDRAL>
-0.0941529

>  <SCORE.INTRA.DIHEDRAL.0>
14.8538

>  <SCORE.INTRA.POLAR>
0

>  <SCORE.INTRA.POLAR.0>
0

>  <SCORE.INTRA.REPUL>
0.259247

>  <SCORE.INTRA.REPUL.0>
0

>  <SCORE.INTRA.SOLV>
2.65062

>  <SCORE.INTRA.SOLV.lig_0>
-100.951

>  <SCORE.INTRA.VDW>
6.89419

>  <SCORE.INTRA.VDW.0>
-5.71388

>  <SCORE.INTRA.norm>
0.225444

>  <SCORE.RESTR>
5.9573

>  <SCORE.RESTR.CAVITY>
5.9573

>  <SCORE.RESTR.norm>
0.14184

>  <SCORE.SYSTEM>
0

>  <SCORE.SYSTEM.CONST>
0

>  <SCORE.SYSTEM.DIHEDRAL>
0

>  <SCORE.SYSTEM.SOLV>
0

>  <SCORE.SYSTEM.norm>
0

>  <SCORE.heavy>
42

>  <SCORE.norm>
0.0324153

>  <RMSD>
15.855

$$$$
3c44_lig
 OpenBabel11021811463D
libRbt.so/2013.1/901 2013/11/27
 42 45  0  0  0  0  0  0  0  0999 V2000
   27.6872   33.3390  -23.3743 C   0  0  2  0  0  0  0  0  0  0  0  0
   28.9247   32.6703  -23.0860 O   0  0  0  0  0  0  0  0  0  0  0  0
   31.4818   32.7572  -19.8236 C   0  0  2  0  0  0  0  0  0  0  0  0
   32.2108   32.7940  -18.5465 N   0  0  0  0  0  0  0  0  0  0  0  0
   28.1752   30.1440  -20.4527 C   0  0  1  0  0  0  0  0  0  0  0  0
   25.5507   28.3248  -17.6801 C   0  0  1  0  0  0  0  0  0  0  0  0
   26.5217   32.4505  -22.9270 C   0  0  2  0  0  0  0  0  0  0  0  0
   26.6629   32.0736  -21.5131 N   0  0  0  0  0  0  0  0  0  0  0  0
   30.5214   33.9452  -19.9311 C   0  0  0  0  0  0  0  0  0  0  0  0
   28.4685   28.9982  -19.4831 C   0  0  2  0  0  0  0  0  0  0  0  0
   27.9967   27.7645  -20.0281 O   0  0  0  0  0  0  0  0  0  0  0  0
   25.3699   29.0901  -16.3651 C   0  0  2  0  0  0  0  0  0  0  0  0
   26.6780   29.6197  -15.9558 N   0  0  0  0  0  0  0  0  0  0  0  0
   26.4323   31.1801  -23.7763 C   0  0  1  0  0  0  0  0  0  0  0  0
   25.2431   30.4641  -23.4293 O   0  0  0  0  0  0  0  0  0  0  0  0
   29.9166   33.9303  -21.3390 C   0  0  2  0  0  0  0  0  0  0  0  0
   28.9403   35.0234  -21.4606 N   0  0  0  0  0  0  0  0  0  0  0  0
   27.5602   29.4036  -18.3239 C   0  0  2  0  0  0  0  0  0  0  0  0
   26.1797   29.1778  -18.6528 O   0  0  0  0  0  0  0  0  0  0  0  0
   24.8389   28.1705  -15.2577 C   0  0  1  0  0  0  0  0  0  0  0  0
   23.4760   27.8196  -15.5109 O   0  0  0  0  0  0  0  0  0  0  0  0
   26.3919   31.5496  -25.2602 C   0  0  2  0  0  0  0  0  0  0  0  0
   26.4196   30.3594  -26.0525 O   0  0  0  0  0  0  0  0  0  0  0  0
   29.2222   32.6060  -21.6803 C   0  0  2  0  0  0  0  0  0  0  0  0
   27.8319   30.8987  -18.2689 C   0  0  2  0  0  0  0  0  0  0  0  0
   28.1658   31.3123  -19.6116 O   0  0  0  0  0  0  0  0  0  0  0  0
   25.6673   26.8880  -15.1640 C   0  0  2  0  0  0  0  0  0  0  0  0
   26.9775   27.2174  -14.6940 O   0  0  0  0  0  0  0  0  0  0  0  0
   27.5986   32.4246  -25.6030 C   0  0  2  0  0  0  0  0  0  0  0  0
   27.6003   33.6116  -24.7854 O   0  0  0  0  0  0  0  0  0  0  0  0
   30.0522   31.3631  -21.3654 C   0  0  2  0  0  0  0  0  0  0  0  0
   29.2143   30.1986  -21.4457 O   0  0  0  0  0  0  0  0  0  0  0  0
   28.9892   31.1715  -17.3057 C   0  0  0  0  0  0  0  0  0  0  0  0
   29.4408   32.5155  -17.4864 O   0  0  0  0  0  0  0  0  0  0  0  0
   25.7431   26.2420  -16.5500 C   0  0  1  0  0  0  0  0  0  0  0  0
   26.3736   27.1701  -17.4503 O   0  0  0  0  0  0  0  0  0  0  0  0
   27.4896   32.8075  -27.0811 C   0  0  0  0  0  0  0  0  0  0  0  0
   27.7751   31.6397  -27.9271 O   0  0  0  0  0  0  0  0  0  0  0  0
   30.6793   31.4619  -19.9697 C   0  0  1  0  0  0  0  0  0  0  0  0
   31.5220   30.3323  -19.7312 O   0  0  0  0  0  0  0  0  0  0  0  0
   26.5403   24.9371  -16.5377 C   0  0  0  0  0  0  0  0  0  0  0  0
   26.8526   24.5479  -17.9199 N   0  0  0  0  0  0  0  0  0  0  0  0
  1  2  1  6  0  0  0
  1  7  1  0  0  0  0
  1 30  1  0  0  0  0
  3  4  1  1  0  0  0
  3  9  1  0  0  0  0
  3 39  1  0  0  0  0
  5 10  1  0  0  0  0
  5 26  1  0  0  0  0
  5 32  1  6  0  0  0
  6 12  1  0  0  0  0
  6 36  1  0  0  0  0
  6 19  1  6  0  0  0
  7  8  1  1  0  0  0
  7 14  1  0  0  0  0
  9 16  1  0  0  0  0
 10 11  1  6  0  0  0
 10 18  1  0  0  0  0
 12 13  1  1  0  0  0
 12 20  1  0  0  0  0
 14 15  1  1  0  0  0
 14 22  1  0  0  0  0
 16 17  1  1  0  0  0
 16 24  1  0  0  0  0
 18 19  1  6  0  0  0
 18 25  1  0  0  0  0
 20 21  1  6  0  0  0
 20 27  1  0  0  0  0
 22 23  1  6  0  0  0
 22 29  1  0  0  0  0
 24  2  1  6  0  0  0
 24 31  1  0  0  0  0
 25 26  1  0  0  0  0
 25 33  1  1  0  0  0
 27 28  1  6  0  0  0
 27 35  1  0  0  0  0
 29 30  1  0  0  0  0
 29 37  1  6  0  0  0
 31 32  1  1  0  0  0
 31 39  1  0  0  0  0
 33 34  1  0  0  0  0
 35 36  1  0  0  0  0
 35 41  1  1  0  0  0
 37 38  1  0  0  0  0
 39 40  1  6  0  0  0
 41 42  1  0  0  0  0
M  END
>  <CHROM.1>
-70.96584802,-112.15650114,71.29873993,124.02486498,-85.13187554,166.79599243
-72.01151118,-65.50136824,-166.30433090,27.74012285,30.46717099,-20.23507903
1.30453197,-0.74376859,-1.19214739

>  <Name>
3c44_lig

>  <RI>
224

>  <Rbt.Current_Directory>
/home/itssahil/PROJECTS/Mol_Feturizer/New_Systems/rnas/3c44

>  <Rbt.Executable>
rbdock ($Id: //depot/dev/client3/rdock/2013.1/src/exe/rbdock.cxx#4 $)

>  <Rbt.Library>
libRbt.so (2013.1, Build901 2013/11/27)

>  <Rbt.Parameter_File>
/export/apps/rDock/src/rDock_2013.1_src/data/scripts/dock_solv.prm

>  <Rbt.Receptor>
prm/blind_docking_60.prm

>  <SCORE>
5.05115

>  <SCORE.INTER>
-14.9547

>  <SCORE.INTER.CONST>
1

>  <SCORE.INTER.POLAR>
-1.00494

>  <SCORE.INTER.ROT>
9

>  <SCORE.INTER.SOLV>
27.1369

>  <SCORE.INTER.VDW>
-25.2657

>  <SCORE.INTER.norm>
-0.356065

>  <SCORE.INTRA>
16.9106

>  <SCORE.INTRA.DIHEDRAL>
4.60193

>  <SCORE.INTRA.DIHEDRAL.0>
14.8538

>  <SCORE.INTRA.POLAR>
0

>  <SCORE.INTRA.POLAR.0>
0

>  <SCORE.INTRA.REPUL>
0.260525

>  <SCORE.INTRA.REPUL.0>
0

>  <SCORE.INTRA.SOLV>
8.74495

>  <SCORE.INTRA.SOLV.lig_0>
-100.951

>  <SCORE.INTRA.VDW>
8.93449

>  <SCORE.INTRA.VDW.0>
-5.71388

>  <SCORE.INTRA.norm>
0.402632

>  <SCORE.RESTR>
3.09531

>  <SCORE.RESTR.CAVITY>
3.09531

>  <SCORE.RESTR.norm>
0.0736978

>  <SCORE.SYSTEM>
0

>  <SCORE.SYSTEM.CONST>
0

>  <SCORE.SYSTEM.DIHEDRAL>
0

>  <SCORE.SYSTEM.SOLV>
0

>  <SCORE.SYSTEM.norm>
0

>  <SCORE.heavy>
42

>  <SCORE.norm>
0.120265

>  <RMSD>
16.020

$$$$
3c44_lig
 OpenBabel11021811463D
libRbt.so/2013.1/901 2013/11/27
 42 45  0  0  0  0  0  0  0  0999 V2000
   29.2251   32.6278  -20.5486 C   0  0  2  0  0  0  0  0  0  0  0  0
   28.0318   32.2334  -21.2430 O   0  0  0  0  0  0  0  0  0  0  0  0
   26.9807   32.9588  -25.1874 C   0  0  2  0  0  0  0  0  0  0  0  0
   26.7993   33.1330  -26.6368 N   0  0  0  0  0  0  0  0  0  0  0  0
   26.4532   29.4613  -21.8534 C   0  0  1  0  0  0  0  0  0  0  0  0
   26.1452   27.2833  -18.4588 C   0  0  1  0  0  0  0  0  0  0  0  0
   30.2978   31.5514  -20.7450 C   0  0  2  0  0  0  0  0  0  0  0  0
   30.5180   31.2857  -22.1739 N   0  0  0  0  0  0  0  0  0  0  0  0
   28.2650   33.6479  -24.7176 C   0  0  0  0  0  0  0  0  0  0  0  0
   27.3015   29.4491  -20.5809 C   0  0  2  0  0  0  0  0  0  0  0  0
   28.0598   28.2400  -20.5112 O   0  0  0  0  0  0  0  0  0  0  0  0
   25.5714   25.8651  -18.5428 C   0  0  2  0  0  0  0  0  0  0  0  0
   24.1052   25.9581  -18.5153 N   0  0  0  0  0  0  0  0  0  0  0  0
   29.9098   30.2451  -20.0478 C   0  0  1  0  0  0  0  0  0  0  0  0
   31.0051   29.3275  -20.1230 O   0  0  0  0  0  0  0  0  0  0  0  0
   28.3085   33.5611  -23.1883 C   0  0  2  0  0  0  0  0  0  0  0  0
   29.5608   34.1598  -22.7025 N   0  0  0  0  0  0  0  0  0  0  0  0
   26.1918   29.3954  -19.5327 C   0  0  2  0  0  0  0  0  0  0  0  0
   25.5794   28.0958  -19.5023 O   0  0  0  0  0  0  0  0  0  0  0  0
   26.0360   25.0087  -17.3576 C   0  0  1  0  0  0  0  0  0  0  0  0
   27.4278   24.7031  -17.4778 O   0  0  0  0  0  0  0  0  0  0  0  0
   29.5729   30.5197  -18.5810 C   0  0  2  0  0  0  0  0  0  0  0  0
   29.1058   29.3181  -17.9623 O   0  0  0  0  0  0  0  0  0  0  0  0
   28.2122   32.1223  -22.6656 C   0  0  2  0  0  0  0  0  0  0  0  0
   25.2138   30.4050  -20.1127 C   0  0  2  0  0  0  0  0  0  0  0  0
   25.3859   30.3774  -21.5462 O   0  0  0  0  0  0  0  0  0  0  0  0
   25.8050   25.7344  -16.0311 C   0  0  2  0  0  0  0  0  0  0  0  0
   24.3971   25.8439  -15.8033 O   0  0  0  0  0  0  0  0  0  0  0  0
   28.4901   31.5966  -18.4974 C   0  0  2  0  0  0  0  0  0  0  0  0
   28.9366   32.8023  -19.1488 O   0  0  0  0  0  0  0  0  0  0  0  0
   27.0817   31.3039  -23.2860 C   0  0  2  0  0  0  0  0  0  0  0  0
   27.2600   29.9175  -22.9532 O   0  0  0  0  0  0  0  0  0  0  0  0
   25.5206   31.7941  -19.5488 C   0  0  0  0  0  0  0  0  0  0  0  0
   24.9607   32.7841  -20.4145 O   0  0  0  0  0  0  0  0  0  0  0  0
   26.4443   27.1235  -16.1057 C   0  0  1  0  0  0  0  0  0  0  0  0
   25.8240   27.8524  -17.1795 O   0  0  0  0  0  0  0  0  0  0  0  0
   28.2218   31.8711  -17.0155 C   0  0  0  0  0  0  0  0  0  0  0  0
   29.3582   32.5900  -16.4217 O   0  0  0  0  0  0  0  0  0  0  0  0
   27.0515   31.4771  -24.8092 C   0  0  1  0  0  0  0  0  0  0  0  0
   25.9340   30.7757  -25.3590 O   0  0  0  0  0  0  0  0  0  0  0  0
   26.2752   27.9092  -14.8047 C   0  0  0  0  0  0  0  0  0  0  0  0
   26.7515   27.0916  -13.6803 N   0  0  0  0  0  0  0  0  0  0  0  0
  1  2  1  6  0  0  0
  1  7  1  0  0  0  0
  1 30  1  0  0  0  0
  3  4  1  6  0  0  0
  3  9  1  0  0  0  0
  3 39  1  0  0  0  0
  5 10  1  0  0  0  0
  5 26  1  0  0  0  0
  5 32  1  6  0  0  0
  6 12  1  0  0  0  0
  6 36  1  0  0  0  0
  6 19  1  6  0  0  0
  7  8  1  6  0  0  0
  7 14  1  0  0  0  0
  9 16  1  0  0  0  0
 10 11  1  6  0  0  0
 10 18  1  0  0  0  0
 12 13  1  1  0  0  0
 12 20  1  0  0  0  0
 14 15  1  1  0  0  0
 14 22  1  0  0  0  0
 16 17  1  6  0  0  0
 16 24  1  0  0  0  0
 18 19  1  6  0  0  0
 18 25  1  0  0  0  0
 20 21  1  6  0  0  0
 20 27  1  0  0  0  0
 22 23  1  6  0  0  0
 22 29  1  0  0  0  0
 24  2  1  1  0  0  0
 24 31  1  0  0  0  0
 25 26  1  0  0  0  0
 25 33  1  1  0  0  0
 27 28  1  6  0  0  0
 27 35  1  0  0  0  0
 29 30  1  0  0  0  0
 29 37  1  1  0  0  0
 31 32  1  6  0  0  0
 31 39  1  0  0  0  0
 33 34  1  0  0  0  0
 35 36  1  0  0  0  0
 35 41  1  1  0  0  0
 37 38  1  0  0  0  0
 39 40  1  1  0  0  0
 41 42  1  0  0  0  0
M  END
>  <CHROM.1>
-62.70924704,-98.94731329,-174.43258796,96.86906127,-73.38065678,159.36929642
71.43538518,99.22166912,52.55870293,27.31710149,29.97282100,-20.01207893
-1.29310761,0.80776433,2.06108904

>  <Name>
3c44_lig

>  <RI>
224

>  <Rbt.Current_Directory>
/home/itssahil/PROJECTS/Mol_Feturizer/New_Systems/rnas/3c44

>  <Rbt.Executable>
rbdock ($Id: //depot/dev/client3/rdock/2013.1/src/exe/rbdock.cxx#4 $)

>  <Rbt.Library>
libRbt.so (2013.1, Build901 2013/11/27)

>  <Rbt.Parameter_File>
/export/apps/rDock/src/rDock_2013.1_src/data/scripts/dock_solv.prm

>  <Rbt.Receptor>
prm/blind_docking_60.prm

>  <SCORE>
19.5907

>  <SCORE.INTER>
2.49579

>  <SCORE.INTER.CONST>
1

>  <SCORE.INTER.POLAR>
-0.385405

>  <SCORE.INTER.ROT>
9

>  <SCORE.INTER.SOLV>
36.7676

>  <SCORE.INTER.VDW>
-18.9073

>  <SCORE.INTER.norm>
0.0594235

>  <SCORE.INTRA>
7.41779

>  <SCORE.INTRA.DIHEDRAL>
3.50234

>  <SCORE.INTRA.DIHEDRAL.0>
14.8538

>  <SCORE.INTRA.POLAR>
0

>  <SCORE.INTRA.POLAR.0>
0

>  <SCORE.INTRA.REPUL>
0

>  <SCORE.INTRA.REPUL.0>
0

>  <SCORE.INTRA.SOLV>
4.46758

>  <SCORE.INTRA.SOLV.lig_0>
-100.951

>  <SCORE.INTRA.VDW>
3.43283

>  <SCORE.INTRA.VDW.0>
-5.71388

>  <SCORE.INTRA.norm>
0.176614

>  <SCORE.RESTR>
9.6771

>  <SCORE.RESTR.CAVITY>
9.6771

>  <SCORE.RESTR.norm>
0.230407

>  <SCORE.SYSTEM>
0

>  <SCORE.SYSTEM.CONST>
0

>  <SCORE.SYSTEM.DIHEDRAL>
0

>  <SCORE.SYSTEM.SOLV>
0

>  <SCORE.SYSTEM.norm>
0

>  <SCORE.heavy>
42

>  <SCORE.norm>
0.466445

>  <RMSD>
16.033

$$$$
3c44_lig
 OpenBabel11021811463D
libRbt.so/2013.1/901 2013/11/27
 42 45  0  0  0  0  0  0  0  0999 V2000
   27.6081   33.3246  -23.5267 C   0  0  2  0  0  0  0  0  0  0  0  0
   28.9348   32.8527  -23.2459 O   0  0  0  0  0  0  0  0  0  0  0  0
   31.4582   32.8123  -19.9564 C   0  0  2  0  0  0  0  0  0  0  0  0
   32.1742   32.8049  -18.6714 N   0  0  0  0  0  0  0  0  0  0  0  0
   28.2737   30.1430  -20.5406 C   0  0  1  0  0  0  0  0  0  0  0  0
   26.0662   28.6644  -17.2399 C   0  0  1  0  0  0  0  0  0  0  0  0
   26.5921   32.3065  -22.9985 C   0  0  2  0  0  0  0  0  0  0  0  0
   26.8206   32.0296  -21.5729 N   0  0  0  0  0  0  0  0  0  0  0  0
   30.5238   34.0223  -20.0465 C   0  0  0  0  0  0  0  0  0  0  0  0
   28.8360   29.0361  -19.6474 C   0  0  2  0  0  0  0  0  0  0  0  0
   28.4550   27.7567  -20.1570 O   0  0  0  0  0  0  0  0  0  0  0  0
   26.4256   27.2524  -16.7654 C   0  0  2  0  0  0  0  0  0  0  0  0
   26.0427   26.3007  -17.8174 N   0  0  0  0  0  0  0  0  0  0  0  0
   26.6627   30.9925  -23.7804 C   0  0  1  0  0  0  0  0  0  0  0  0
   25.5962   30.1362  -23.3601 O   0  0  0  0  0  0  0  0  0  0  0  0
   29.9339   34.0519  -21.4605 C   0  0  2  0  0  0  0  0  0  0  0  0
   28.9816   35.1676  -21.5670 N   0  0  0  0  0  0  0  0  0  0  0  0
   28.0467   29.3117  -18.3691 C   0  0  2  0  0  0  0  0  0  0  0  0
   26.6742   28.9132  -18.5195 O   0  0  0  0  0  0  0  0  0  0  0  0
   25.6758   26.8940  -15.4757 C   0  0  1  0  0  0  0  0  0  0  0  0
   26.1898   27.6467  -14.3738 O   0  0  0  0  0  0  0  0  0  0  0  0
   26.5332   31.2724  -25.2787 C   0  0  2  0  0  0  0  0  0  0  0  0
   26.7096   30.0572  -26.0115 O   0  0  0  0  0  0  0  0  0  0  0  0
   29.2160   32.7504  -21.8390 C   0  0  2  0  0  0  0  0  0  0  0  0
   28.1325   30.8287  -18.3120 C   0  0  2  0  0  0  0  0  0  0  0  0
   28.2295   31.2932  -19.6759 O   0  0  0  0  0  0  0  0  0  0  0  0
   24.1796   27.1814  -15.6118 C   0  0  2  0  0  0  0  0  0  0  0  0
   23.6187   26.2708  -16.5617 O   0  0  0  0  0  0  0  0  0  0  0  0
   27.5945   32.2886  -25.7033 C   0  0  2  0  0  0  0  0  0  0  0  0
   27.4481   33.5062  -24.9461 O   0  0  0  0  0  0  0  0  0  0  0  0
   30.0167   31.4837  -21.5442 C   0  0  2  0  0  0  0  0  0  0  0  0
   29.1558   30.3390  -21.6596 O   0  0  0  0  0  0  0  0  0  0  0  0
   29.3643   31.2397  -17.5024 C   0  0  0  0  0  0  0  0  0  0  0  0
   29.4578   32.6658  -17.4851 O   0  0  0  0  0  0  0  0  0  0  0  0
   23.9909   28.6266  -16.0805 C   0  0  1  0  0  0  0  0  0  0  0  0
   24.6390   28.7793  -17.3557 O   0  0  0  0  0  0  0  0  0  0  0  0
   27.3953   32.5725  -27.1943 C   0  0  0  0  0  0  0  0  0  0  0  0
   28.6612   33.0135  -27.7975 O   0  0  0  0  0  0  0  0  0  0  0  0
   30.6308   31.5377  -20.1402 C   0  0  1  0  0  0  0  0  0  0  0  0
   31.4474   30.3856  -19.9191 O   0  0  0  0  0  0  0  0  0  0  0  0
   22.5151   29.0014  -16.2216 C   0  0  0  0  0  0  0  0  0  0  0  0
   22.4110   30.3988  -16.6643 N   0  0  0  0  0  0  0  0  0  0  0  0
  1  2  1  6  0  0  0
  1  7  1  0  0  0  0
  1 30  1  0  0  0  0
  3  4  1  1  0  0  0
  3  9  1  0  0  0  0
  3 39  1  0  0  0  0
  5 10  1  0  0  0  0
  5 26  1  0  0  0  0
  5 32  1  6  0  0  0
  6 12  1  0  0  0  0
  6 36  1  0  0  0  0
  6 19  1  6  0  0  0
  7  8  1  1  0  0  0
  7 14  1  0  0  0  0
  9 16  1  0  0  0  0
 10 11  1  6  0  0  0
 10 18  1  0  0  0  0
 12 13  1  6  0  0  0
 12 20  1  0  0  0  0
 14 15  1  1  0  0  0
 14 22  1  0  0  0  0
 16 17  1  1  0  0  0
 16 24  1  0  0  0  0
 18 19  1  6  0  0  0
 18 25  1  0  0  0  0
 20 21  1  1  0  0  0
 20 27  1  0  0  0  0
 22 23  1  6  0  0  0
 22 29  1  0  0  0  0
 24  2  1  6  0  0  0
 24 31  1  0  0  0  0
 25 26  1  0  0  0  0
 25 33  1  1  0  0  0
 27 28  1  6  0  0  0
 27 35  1  0  0  0  0
 29 30  1  0  0  0  0
 29 37  1  6  0  0  0
 31 32  1  1  0  0  0
 31 39  1  0  0  0  0
 33 34  1  0  0  0  0
 35 36  1  0  0  0  0
 35 41  1  6  0  0  0
 37 38  1  0  0  0  0
 39 40  1  6  0  0  0
 41 42  1  0  0  0  0
M  END
>  <CHROM.1>
-63.73768064,-101.66333888,-82.06813314,157.18227163,-96.11792040,178.41504534
-154.33274466,-76.86861547,179.62913635,27.54950673,30.64883987,-20.32518578
1.16775725,-0.54082324,-1.25386905

>  <Name>
3c44_lig

>  <RI>
224

>  <Rbt.Current_Directory>
/home/itssahil/PROJECTS/Mol_Feturizer/New_Systems/rnas/3c44

>  <Rbt.Executable>
rbdock ($Id: //depot/dev/client3/rdock/2013.1/src/exe/rbdock.cxx#4 $)

>  <Rbt.Library>
libRbt.so (2013.1, Build901 2013/11/27)

>  <Rbt.Parameter_File>
/export/apps/rDock/src/rDock_2013.1_src/data/scripts/dock_solv.prm

>  <Rbt.Receptor>
prm/blind_docking_60.prm

>  <SCORE>
4.31136

>  <SCORE.INTER>
-15.5922

>  <SCORE.INTER.CONST>
1

>  <SCORE.INTER.POLAR>
-1.1426

>  <SCORE.INTER.ROT>
9

>  <SCORE.INTER.SOLV>
20.5271

>  <SCORE.INTER.VDW>
-23.0285

>  <SCORE.INTER.norm>
-0.371242

>  <SCORE.INTRA>
14.3027

>  <SCORE.INTRA.DIHEDRAL>
3.47957

>  <SCORE.INTRA.DIHEDRAL.0>
14.8538

>  <SCORE.INTRA.POLAR>
0

>  <SCORE.INTRA.POLAR.0>
0

>  <SCORE.INTRA.REPUL>
0.00581839

>  <SCORE.INTRA.REPUL.0>
0

>  <SCORE.INTRA.SOLV>
5.89808

>  <SCORE.INTRA.SOLV.lig_0>
-100.951

>  <SCORE.INTRA.VDW>
9.58473

>  <SCORE.INTRA.VDW.0>
-5.71388

>  <SCORE.INTRA.norm>
0.340539

>  <SCORE.RESTR>
5.60086

>  <SCORE.RESTR.CAVITY>
5.60086

>  <SCORE.RESTR.norm>
0.133354

>  <SCORE.SYSTEM>
0

>  <SCORE.SYSTEM.CONST>
0

>  <SCORE.SYSTEM.DIHEDRAL>
0

>  <SCORE.SYSTEM.SOLV>
0

>  <SCORE.SYSTEM.norm>
0

>  <SCORE.heavy>
42

>  <SCORE.norm>
0.102652

>  <RMSD>
16.151

$$$$
3c44_lig
 OpenBabel11021811463D
libRbt.so/2013.1/901 2013/11/27
 42 45  0  0  0  0  0  0  0  0999 V2000
   28.0506   33.5044  -23.6005 C   0  0  2  0  0  0  0  0  0  0  0  0
   29.2390   32.7875  -23.2323 O   0  0  0  0  0  0  0  0  0  0  0  0
   31.5143   32.8481  -19.7669 C   0  0  2  0  0  0  0  0  0  0  0  0
   32.1341   32.8649  -18.4329 N   0  0  0  0  0  0  0  0  0  0  0  0
   28.3945   30.1256  -20.7321 C   0  0  1  0  0  0  0  0  0  0  0  0
   25.9209   27.8827  -18.2498 C   0  0  1  0  0  0  0  0  0  0  0  0
   26.8233   32.6845  -23.1886 C   0  0  2  0  0  0  0  0  0  0  0  0
   26.8767   32.3431  -21.7597 N   0  0  0  0  0  0  0  0  0  0  0  0
   30.5210   34.0043  -19.9150 C   0  0  0  0  0  0  0  0  0  0  0  0
   28.7457   29.0484  -19.7049 C   0  0  2  0  0  0  0  0  0  0  0  0
   28.4539   27.7542  -20.2354 O   0  0  0  0  0  0  0  0  0  0  0  0
   24.3962   27.7885  -18.3685 C   0  0  2  0  0  0  0  0  0  0  0  0
   23.8232   29.0901  -17.9988 N   0  0  0  0  0  0  0  0  0  0  0  0
   26.7149   31.3953  -24.0067 C   0  0  1  0  0  0  0  0  0  0  0  0
   25.4772   30.7458  -23.7009 O   0  0  0  0  0  0  0  0  0  0  0  0
   30.0350   34.0184  -21.3681 C   0  0  2  0  0  0  0  0  0  0  0  0
   29.0306   35.0798  -21.5347 N   0  0  0  0  0  0  0  0  0  0  0  0
   27.7193   29.3802  -18.6235 C   0  0  2  0  0  0  0  0  0  0  0  0
   26.3989   28.9893  -19.0345 O   0  0  0  0  0  0  0  0  0  0  0  0
   23.8329   26.7140  -17.4291 C   0  0  1  0  0  0  0  0  0  0  0  0
   24.1829   25.4088  -17.8968 O   0  0  0  0  0  0  0  0  0  0  0  0
   26.7651   31.7225  -25.5002 C   0  0  2  0  0  0  0  0  0  0  0  0
   26.7746   30.5096  -26.2577 O   0  0  0  0  0  0  0  0  0  0  0  0
   29.4223   32.6834  -21.8094 C   0  0  2  0  0  0  0  0  0  0  0  0
   27.8177   30.8974  -18.6042 C   0  0  2  0  0  0  0  0  0  0  0  0
   28.1961   31.3085  -19.9358 O   0  0  0  0  0  0  0  0  0  0  0  0
   24.3727   26.8882  -16.0085 C   0  0  2  0  0  0  0  0  0  0  0  0
   23.8397   28.0954  -15.4564 O   0  0  0  0  0  0  0  0  0  0  0  0
   28.0277   32.5300  -25.8052 C   0  0  2  0  0  0  0  0  0  0  0  0
   28.0461   33.7391  -25.0210 O   0  0  0  0  0  0  0  0  0  0  0  0
   30.2708   31.4603  -21.4675 C   0  0  2  0  0  0  0  0  0  0  0  0
   29.4877   30.2704  -21.6556 O   0  0  0  0  0  0  0  0  0  0  0  0
   28.8673   31.3272  -17.5770 C   0  0  0  0  0  0  0  0  0  0  0  0
   28.5356   30.7638  -16.3060 O   0  0  0  0  0  0  0  0  0  0  0  0
   25.9014   26.9537  -16.0614 C   0  0  1  0  0  0  0  0  0  0  0  0
   26.2804   28.0793  -16.8730 O   0  0  0  0  0  0  0  0  0  0  0  0
   28.0097   32.8740  -27.2968 C   0  0  0  0  0  0  0  0  0  0  0  0
   27.7400   31.6660  -28.0899 O   0  0  0  0  0  0  0  0  0  0  0  0
   30.7769   31.5311  -20.0219 C   0  0  1  0  0  0  0  0  0  0  0  0
   31.6400   30.4243  -19.7512 O   0  0  0  0  0  0  0  0  0  0  0  0
   26.5226   27.1068  -14.6725 C   0  0  0  0  0  0  0  0  0  0  0  0
   26.0768   25.9973  -13.8182 N   0  0  0  0  0  0  0  0  0  0  0  0
  1  2  1  6  0  0  0
  1  7  1  0  0  0  0
  1 30  1  0  0  0  0
  3  4  1  1  0  0  0
  3  9  1  0  0  0  0
  3 39  1  0  0  0  0
  5 10  1  0  0  0  0
  5 26  1  0  0  0  0
  5 32  1  6  0  0  0
  6 12  1  0  0  0  0
  6 36  1  0  0  0  0
  6 19  1  6  0  0  0
  7  8  1  1  0  0  0
  7 14  1  0  0  0  0
  9 16  1  0  0  0  0
 10 11  1  6  0  0  0
 10 18  1  0  0  0  0
 12 13  1  1  0  0  0
 12 20  1  0  0  0  0
 14 15  1  6  0  0  0
 14 22  1  0  0  0  0
 16 17  1  1  0  0  0
 16 24  1  0  0  0  0
 18 19  1  6  0  0  0
 18 25  1  0  0  0  0
 20 21  1  6  0  0  0
 20 27  1  0  0  0  0
 22 23  1  6  0  0  0
 22 29  1  0  0  0  0
 24  2  1  6  0  0  0
 24 31  1  0  0  0  0
 25 26  1  0  0  0  0
 25 33  1  1  0  0  0
 27 28  1  6  0  0  0
 27 35  1  0  0  0  0
 29 30  1  0  0  0  0
 29 37  1  6  0  0  0
 31 32  1  1  0  0  0
 31 39  1  0  0  0  0
 33 34  1  0  0  0  0
 35 36  1  0  0  0  0
 35 41  1  1  0  0  0
 37 38  1  0  0  0  0
 39 40  1  6  0  0  0
 41 42  1  0  0  0  0
M  END
>  <CHROM.1>
-67.53267238,-105.83587559,161.28249086,111.15705794,-81.02373585,-55.39513614
-49.45028121,-67.06534634,56.69521873,27.64885457,30.48435904,-20.42088639
1.20610844,-0.63958755,-1.21979914

>  <Name>
3c44_lig

>  <RI>
224

>  <Rbt.Current_Directory>
/home/itssahil/PROJECTS/Mol_Feturizer/New_Systems/rnas/3c44

>  <Rbt.Executable>
rbdock ($Id: //depot/dev/client3/rdock/2013.1/src/exe/rbdock.cxx#4 $)

>  <Rbt.Library>
libRbt.so (2013.1, Build901 2013/11/27)

>  <Rbt.Parameter_File>
/export/apps/rDock/src/rDock_2013.1_src/data/scripts/dock_solv.prm

>  <Rbt.Receptor>
prm/blind_docking_60.prm

>  <SCORE>
6.79965

>  <SCORE.INTER>
-12.2829

>  <SCORE.INTER.CONST>
1

>  <SCORE.INTER.POLAR>
-0.80616

>  <SCORE.INTER.ROT>
9

>  <SCORE.INTER.SOLV>
22.0668

>  <SCORE.INTER.VDW>
-22.457

>  <SCORE.INTER.norm>
-0.292451

>  <SCORE.INTRA>
14.0506

>  <SCORE.INTRA.DIHEDRAL>
2.50558

>  <SCORE.INTRA.DIHEDRAL.0>
14.8538

>  <SCORE.INTRA.POLAR>
0

>  <SCORE.INTRA.POLAR.0>
0

>  <SCORE.INTRA.REPUL>
0.190755

>  <SCORE.INTRA.REPUL.0>
0

>  <SCORE.INTRA.SOLV>
4.78429

>  <SCORE.INTRA.SOLV.lig_0>
-100.951

>  <SCORE.INTRA.VDW>
9.45186

>  <SCORE.INTRA.VDW.0>
-5.71388

>  <SCORE.INTRA.norm>
0.334537

>  <SCORE.RESTR>
5.03203

>  <SCORE.RESTR.CAVITY>
5.03203

>  <SCORE.RESTR.norm>
0.11981

>  <SCORE.SYSTEM>
0

>  <SCORE.SYSTEM.CONST>
0

>  <SCORE.SYSTEM.DIHEDRAL>
0

>  <SCORE.SYSTEM.SOLV>
0

>  <SCORE.SYSTEM.norm>
0

>  <SCORE.heavy>
42

>  <SCORE.norm>
0.161897

>  <RMSD>
16.243

$$$$
3c44_lig
 OpenBabel11021811463D
libRbt.so/2013.1/901 2013/11/27
 42 45  0  0  0  0  0  0  0  0999 V2000
   28.4110   32.2501  -23.2676 C   0  0  2  0  0  0  0  0  0  0  0  0
   28.1250   33.3575  -22.3994 O   0  0  0  0  0  0  0  0  0  0  0  0
   31.2236   32.1630  -19.9174 C   0  0  2  0  0  0  0  0  0  0  0  0
   32.2364   31.8711  -18.8912 N   0  0  0  0  0  0  0  0  0  0  0  0
   27.4776   30.3371  -19.2943 C   0  0  1  0  0  0  0  0  0  0  0  0
   27.5913   27.4694  -16.2528 C   0  0  1  0  0  0  0  0  0  0  0  0
   28.0547   32.6370  -24.7068 C   0  0  2  0  0  0  0  0  0  0  0  0
   28.7399   33.8764  -25.1011 N   0  0  0  0  0  0  0  0  0  0  0  0
   31.1497   33.6682  -20.1898 C   0  0  0  0  0  0  0  0  0  0  0  0
   27.3143   30.8165  -17.8512 C   0  0  2  0  0  0  0  0  0  0  0  0
   28.5861   31.1798  -17.3105 O   0  0  0  0  0  0  0  0  0  0  0  0
   28.5540   26.3058  -16.5120 C   0  0  2  0  0  0  0  0  0  0  0  0
   28.5487   26.0146  -17.9522 N   0  0  0  0  0  0  0  0  0  0  0  0
   26.5450   32.8253  -24.8752 C   0  0  1  0  0  0  0  0  0  0  0  0
   26.2470   33.0277  -26.2600 O   0  0  0  0  0  0  0  0  0  0  0  0
   30.1956   33.8824  -21.3695 C   0  0  2  0  0  0  0  0  0  0  0  0
   30.0507   35.3240  -21.6223 N   0  0  0  0  0  0  0  0  0  0  0  0
   26.8555   29.5143  -17.1981 C   0  0  2  0  0  0  0  0  0  0  0  0
   27.9463   28.5852  -17.0882 O   0  0  0  0  0  0  0  0  0  0  0  0
   28.1191   25.0471  -15.7501 C   0  0  1  0  0  0  0  0  0  0  0  0
   28.3314   25.2152  -14.3460 O   0  0  0  0  0  0  0  0  0  0  0  0
   25.8075   31.5840  -24.3697 C   0  0  2  0  0  0  0  0  0  0  0  0
   24.3961   31.8074  -24.4264 O   0  0  0  0  0  0  0  0  0  0  0  0
   28.8052   33.2789  -21.1346 C   0  0  2  0  0  0  0  0  0  0  0  0
   25.8658   29.0158  -18.2393 C   0  0  2  0  0  0  0  0  0  0  0  0
   26.3166   29.5155  -19.5170 O   0  0  0  0  0  0  0  0  0  0  0  0
   26.6394   24.7428  -15.9905 C   0  0  2  0  0  0  0  0  0  0  0  0
   26.4630   24.3568  -17.3565 O   0  0  0  0  0  0  0  0  0  0  0  0
   26.2252   31.2922  -22.9276 C   0  0  2  0  0  0  0  0  0  0  0  0
   27.6515   31.0995  -22.8525 O   0  0  0  0  0  0  0  0  0  0  0  0
   28.8243   31.8389  -20.6260 C   0  0  2  0  0  0  0  0  0  0  0  0
   27.5105   31.4783  -20.1690 O   0  0  0  0  0  0  0  0  0  0  0  0
   24.4676   29.5404  -17.9060 C   0  0  0  0  0  0  0  0  0  0  0  0
   24.2090   29.3314  -16.5159 O   0  0  0  0  0  0  0  0  0  0  0  0
   25.8165   25.9955  -15.6782 C   0  0  1  0  0  0  0  0  0  0  0  0
   26.2493   27.0533  -16.5518 O   0  0  0  0  0  0  0  0  0  0  0  0
   25.5009   30.0189  -22.4831 C   0  0  0  0  0  0  0  0  0  0  0  0
   24.6320   29.5296  -23.5632 O   0  0  0  0  0  0  0  0  0  0  0  0
   29.8385   31.6727  -19.4881 C   0  0  1  0  0  0  0  0  0  0  0  0
   29.9045   30.3020  -19.0883 O   0  0  0  0  0  0  0  0  0  0  0  0
   24.3173   25.7669  -15.8742 C   0  0  0  0  0  0  0  0  0  0  0  0
   23.6081   27.0439  -15.7132 N   0  0  0  0  0  0  0  0  0  0  0  0
  1  2  1  1  0  0  0
  1  7  1  0  0  0  0
  1 30  1  0  0  0  0
  3  4  1  1  0  0  0
  3  9  1  0  0  0  0
  3 39  1  0  0  0  0
  5 10  1  0  0  0  0
  5 26  1  0  0  0  0
  5 32  1  6  0  0  0
  6 12  1  0  0  0  0
  6 36  1  0  0  0  0
  6 19  1  6  0  0  0
  7  8  1  1  0  0  0
  7 14  1  0  0  0  0
  9 16  1  0  0  0  0
 10 11  1  1  0  0  0
 10 18  1  0  0  0  0
 12 13  1  6  0  0  0
 12 20  1  0  0  0  0
 14 15  1  6  0  0  0
 14 22  1  0  0  0  0
 16 17  1  1  0  0  0
 16 24  1  0  0  0  0
 18 19  1  6  0  0  0
 18 25  1  0  0  0  0
 20 21  1  1  0  0  0
 20 27  1  0  0  0  0
 22 23  1  1  0  0  0
 22 29  1  0  0  0  0
 24  2  1  6  0  0  0
 24 31  1  0  0  0  0
 25 26  1  0  0  0  0
 25 33  1  1  0  0  0
 27 28  1  6  0  0  0
 27 35  1  0  0  0  0
 29 30  1  0  0  0  0
 29 37  1  6  0  0  0
 31 32  1  1  0  0  0
 31 39  1  0  0  0  0
 33 34  1  0  0  0  0
 35 36  1  0  0  0  0
 35 41  1  6  0  0  0
 37 38  1  0  0  0  0
 39 40  1  6  0  0  0
 41 42  1  0  0  0  0
M  END
>  <CHROM.1>
-160.94482084,102.32052548,161.63329155,168.96677656,84.97682575,-46.86043879
-1.45659924,-161.22471710,-173.36377214,27.42371226,30.01994230,-19.73226735
-1.41126948,0.52921209,2.21989926

>  <Name>
3c44_lig

>  <RI>
224

>  <Rbt.Current_Directory>
/home/itssahil/PROJECTS/Mol_Feturizer/New_Systems/rnas/3c44

>  <Rbt.Executable>
rbdock ($Id: //depot/dev/client3/rdock/2013.1/src/exe/rbdock.cxx#4 $)

>  <Rbt.Library>
libRbt.so (2013.1, Build901 2013/11/27)

>  <Rbt.Parameter_File>
/export/apps/rDock/src/rDock_2013.1_src/data/scripts/dock_solv.prm

>  <Rbt.Receptor>
prm/blind_docking_60.prm

>  <SCORE>
30.2615

>  <SCORE.INTER>
4.60258

>  <SCORE.INTER.CONST>
1

>  <SCORE.INTER.POLAR>
-0.0665381

>  <SCORE.INTER.ROT>
9

>  <SCORE.INTER.SOLV>
32.5769

>  <SCORE.INTER.VDW>
-17.1688

>  <SCORE.INTER.norm>
0.109585

>  <SCORE.INTRA>
20.8991

>  <SCORE.INTRA.DIHEDRAL>
5.21627

>  <SCORE.INTRA.DIHEDRAL.0>
14.8538

>  <SCORE.INTRA.POLAR>
0

>  <SCORE.INTRA.POLAR.0>
0

>  <SCORE.INTRA.REPUL>
0.33033

>  <SCORE.INTRA.REPUL.0>
0

>  <SCORE.INTRA.SOLV>
1.6008

>  <SCORE.INTRA.SOLV.lig_0>
-100.951

>  <SCORE.INTRA.VDW>
15.8389

>  <SCORE.INTRA.VDW.0>
-5.71388

>  <SCORE.INTRA.norm>
0.497597

>  <SCORE.RESTR>
4.75989

>  <SCORE.RESTR.CAVITY>
4.75989

>  <SCORE.RESTR.norm>
0.113331

>  <SCORE.SYSTEM>
0

>  <SCORE.SYSTEM.CONST>
0

>  <SCORE.SYSTEM.DIHEDRAL>
0

>  <SCORE.SYSTEM.SOLV>
0

>  <SCORE.SYSTEM.norm>
0

>  <SCORE.heavy>
42

>  <SCORE.norm>
0.720513

>  <RMSD>
16.287

$$$$
3c44_lig
 OpenBabel11021811463D
libRbt.so/2013.1/901 2013/11/27
 42 45  0  0  0  0  0  0  0  0999 V2000
   27.8940   32.0491  -23.1146 C   0  0  2  0  0  0  0  0  0  0  0  0
   27.5914   32.2278  -21.7224 O   0  0  0  0  0  0  0  0  0  0  0  0
   31.3409   30.7337  -20.7745 C   0  0  2  0  0  0  0  0  0  0  0  0
   32.5967   30.1873  -20.2375 N   0  0  0  0  0  0  0  0  0  0  0  0
   27.7355   28.7984  -19.8708 C   0  0  1  0  0  0  0  0  0  0  0  0
   27.7885   27.1924  -16.7953 C   0  0  1  0  0  0  0  0  0  0  0  0
   27.1317   33.0977  -23.9314 C   0  0  2  0  0  0  0  0  0  0  0  0
   27.4210   34.4538  -23.4433 N   0  0  0  0  0  0  0  0  0  0  0  0
   30.9253   31.9896  -20.0030 C   0  0  0  0  0  0  0  0  0  0  0  0
   27.0280   29.8435  -19.0069 C   0  0  2  0  0  0  0  0  0  0  0  0
   27.9711   30.8098  -18.5391 O   0  0  0  0  0  0  0  0  0  0  0  0
   26.5462   26.7485  -16.0159 C   0  0  2  0  0  0  0  0  0  0  0  0
   26.4557   27.5571  -14.7924 N   0  0  0  0  0  0  0  0  0  0  0  0
   25.6210   32.8577  -23.8740 C   0  0  1  0  0  0  0  0  0  0  0  0
   24.9663   33.7580  -24.7731 O   0  0  0  0  0  0  0  0  0  0  0  0
   29.7052   32.5891  -20.7101 C   0  0  2  0  0  0  0  0  0  0  0  0
   29.2383   33.7656  -19.9611 N   0  0  0  0  0  0  0  0  0  0  0  0
   26.6032   28.9623  -17.8339 C   0  0  2  0  0  0  0  0  0  0  0  0
   27.7353   28.6120  -17.0211 O   0  0  0  0  0  0  0  0  0  0  0  0
   26.6371   25.2674  -15.6258 C   0  0  1  0  0  0  0  0  0  0  0  0
   26.4948   24.4371  -16.7813 O   0  0  0  0  0  0  0  0  0  0  0  0
   25.3088   31.4155  -24.2774 C   0  0  2  0  0  0  0  0  0  0  0  0
   23.9103   31.1637  -24.1167 O   0  0  0  0  0  0  0  0  0  0  0  0
   28.5436   31.5971  -20.8481 C   0  0  2  0  0  0  0  0  0  0  0  0
   26.1099   27.7308  -18.5768 C   0  0  2  0  0  0  0  0  0  0  0  0
   26.8669   27.6523  -19.8041 O   0  0  0  0  0  0  0  0  0  0  0  0
   27.9781   24.9560  -14.9590 C   0  0  2  0  0  0  0  0  0  0  0  0
   28.0279   25.6160  -13.6909 O   0  0  0  0  0  0  0  0  0  0  0  0
   26.1096   30.4534  -23.3986 C   0  0  2  0  0  0  0  0  0  0  0  0
   27.5201   30.7208  -23.5258 O   0  0  0  0  0  0  0  0  0  0  0  0
   28.9482   30.2297  -21.3950 C   0  0  2  0  0  0  0  0  0  0  0  0
   27.8646   29.3041  -21.2110 O   0  0  0  0  0  0  0  0  0  0  0  0
   24.6133   27.8729  -18.8622 C   0  0  0  0  0  0  0  0  0  0  0  0
   23.9145   28.0302  -17.6252 O   0  0  0  0  0  0  0  0  0  0  0  0
   29.1103   25.4496  -15.8636 C   0  0  1  0  0  0  0  0  0  0  0  0
   28.9662   26.8702  -16.0384 O   0  0  0  0  0  0  0  0  0  0  0  0
   25.8024   29.0295  -23.8695 C   0  0  0  0  0  0  0  0  0  0  0  0
   26.2874   28.8370  -25.2438 O   0  0  0  0  0  0  0  0  0  0  0  0
   30.2071   29.7086  -20.6917 C   0  0  1  0  0  0  0  0  0  0  0  0
   30.6188   28.4721  -21.2788 O   0  0  0  0  0  0  0  0  0  0  0  0
   30.4910   25.1556  -15.2756 C   0  0  0  0  0  0  0  0  0  0  0  0
   30.6081   25.8102  -13.9652 N   0  0  0  0  0  0  0  0  0  0  0  0
  1  2  1  1  0  0  0
  1  7  1  0  0  0  0
  1 30  1  0  0  0  0
  3  4  1  1  0  0  0
  3  9  1  0  0  0  0
  3 39  1  0  0  0  0
  5 10  1  0  0  0  0
  5 26  1  0  0  0  0
  5 32  1  6  0  0  0
  6 12  1  0  0  0  0
  6 36  1  0  0  0  0
  6 19  1  1  0  0  0
  7  8  1  1  0  0  0
  7 14  1  0  0  0  0
  9 16  1  0  0  0  0
 10 11  1  1  0  0  0
 10 18  1  0  0  0  0
 12 13  1  1  0  0  0
 12 20  1  0  0  0  0
 14 15  1  6  0  0  0
 14 22  1  0  0  0  0
 16 17  1  1  0  0  0
 16 24  1  0  0  0  0
 18 19  1  1  0  0  0
 18 25  1  0  0  0  0
 20 21  1  6  0  0  0
 20 27  1  0  0  0  0
 22 23  1  1  0  0  0
 22 29  1  0  0  0  0
 24  2  1  6  0  0  0
 24 31  1  0  0  0  0
 25 26  1  0  0  0  0
 25 33  1  6  0  0  0
 27 28  1  1  0  0  0
 27 35  1  0  0  0  0
 29 30  1  0  0  0  0
 29 37  1  6  0  0  0
 31 32  1  1  0  0  0
 31 39  1  0  0  0  0
 33 34  1  0  0  0  0
 35 36  1  0  0  0  0
 35 41  1  1  0  0  0
 37 38  1  0  0  0  0
 39 40  1  6  0  0  0
 41 42  1  0  0  0  0
M  END
>  <CHROM.1>
-161.70637847,79.65871743,-62.88042091,-129.25460373,83.53274518,-58.73814080
64.44237612,-77.93912366,-59.08844166,27.66583830,29.31578823,-19.75875629
-1.69360266,0.34500401,2.25662778

>  <Name>
3c44_lig

>  <RI>
224

>  <Rbt.Current_Directory>
/home/itssahil/PROJECTS/Mol_Feturizer/New_Systems/rnas/3c44

>  <Rbt.Executable>
rbdock ($Id: //depot/dev/client3/rdock/2013.1/src/exe/rbdock.cxx#4 $)

>  <Rbt.Library>
libRbt.so (2013.1, Build901 2013/11/27)

>  <Rbt.Parameter_File>
/export/apps/rDock/src/rDock_2013.1_src/data/scripts/dock_solv.prm

>  <Rbt.Receptor>
prm/blind_docking_60.prm

>  <SCORE>
6.54626

>  <SCORE.INTER>
-14.1116

>  <SCORE.INTER.CONST>
1

>  <SCORE.INTER.POLAR>
-0.815668

>  <SCORE.INTER.ROT>
9

>  <SCORE.INTER.SOLV>
32.0098

>  <SCORE.INTER.VDW>
-26.9588

>  <SCORE.INTER.norm>
-0.335991

>  <SCORE.INTRA>
14.9471

>  <SCORE.INTRA.DIHEDRAL>
-0.986081

>  <SCORE.INTRA.DIHEDRAL.0>
14.8538

>  <SCORE.INTRA.POLAR>
0

>  <SCORE.INTRA.POLAR.0>
0

>  <SCORE.INTRA.REPUL>
0

>  <SCORE.INTRA.REPUL.0>
0

>  <SCORE.INTRA.SOLV>
0.786158

>  <SCORE.INTRA.SOLV.lig_0>
-100.951

>  <SCORE.INTRA.VDW>
15.047

>  <SCORE.INTRA.VDW.0>
-5.71388

>  <SCORE.INTRA.norm>
0.355883

>  <SCORE.RESTR>
5.71079

>  <SCORE.RESTR.CAVITY>
5.71079

>  <SCORE.RESTR.norm>
0.135971

>  <SCORE.SYSTEM>
0

>  <SCORE.SYSTEM.CONST>
0

>  <SCORE.SYSTEM.DIHEDRAL>
0

>  <SCORE.SYSTEM.SOLV>
0

>  <SCORE.SYSTEM.norm>
0

>  <SCORE.heavy>
42

>  <SCORE.norm>
0.155863

>  <RMSD>
16.352

$$$$
3c44_lig
 OpenBabel11021811463D
libRbt.so/2013.1/901 2013/11/27
 42 45  0  0  0  0  0  0  0  0999 V2000
   28.3801   33.9726  -23.0868 C   0  0  2  0  0  0  0  0  0  0  0  0
   28.7134   32.9731  -22.1113 O   0  0  0  0  0  0  0  0  0  0  0  0
   31.9910   33.5370  -19.6356 C   0  0  2  0  0  0  0  0  0  0  0  0
   33.0332   33.8836  -18.6571 N   0  0  0  0  0  0  0  0  0  0  0  0
   28.3624   30.4751  -19.5550 C   0  0  1  0  0  0  0  0  0  0  0  0
   26.9052   27.4717  -17.9209 C   0  0  1  0  0  0  0  0  0  0  0  0
   26.8878   34.3023  -22.9765 C   0  0  2  0  0  0  0  0  0  0  0  0
   26.5374   34.6914  -21.6029 N   0  0  0  0  0  0  0  0  0  0  0  0
   31.5170   34.7858  -20.3845 C   0  0  0  0  0  0  0  0  0  0  0  0
   26.9203   30.1492  -19.1639 C   0  0  2  0  0  0  0  0  0  0  0  0
   26.8328   29.9379  -17.7534 O   0  0  0  0  0  0  0  0  0  0  0  0
   27.9508   26.8187  -17.0109 C   0  0  2  0  0  0  0  0  0  0  0  0
   28.5149   25.6586  -17.7145 N   0  0  0  0  0  0  0  0  0  0  0  0
   26.0221   33.1111  -23.3947 C   0  0  1  0  0  0  0  0  0  0  0  0
   24.6497   33.5146  -23.4277 O   0  0  0  0  0  0  0  0  0  0  0  0
   30.5539   34.3316  -21.4864 C   0  0  2  0  0  0  0  0  0  0  0  0
   30.0286   35.5114  -22.1900 N   0  0  0  0  0  0  0  0  0  0  0  0
   26.7587   28.8065  -19.8737 C   0  0  2  0  0  0  0  0  0  0  0  0
   27.4975   27.7772  -19.1956 O   0  0  0  0  0  0  0  0  0  0  0  0
   27.3204   26.3425  -15.6957 C   0  0  1  0  0  0  0  0  0  0  0  0
   26.9672   27.4610  -14.8777 O   0  0  0  0  0  0  0  0  0  0  0  0
   26.4451   32.6236  -24.7816 C   0  0  2  0  0  0  0  0  0  0  0  0
   25.7101   31.4449  -25.1213 O   0  0  0  0  0  0  0  0  0  0  0  0
   29.3752   33.5085  -20.9519 C   0  0  2  0  0  0  0  0  0  0  0  0
   27.4230   29.1156  -21.2060 C   0  0  2  0  0  0  0  0  0  0  0  0
   28.4298   30.1182  -20.9481 O   0  0  0  0  0  0  0  0  0  0  0  0
   26.0646   25.5096  -15.9581 C   0  0  2  0  0  0  0  0  0  0  0  0
   26.4471   24.2811  -16.5831 O   0  0  0  0  0  0  0  0  0  0  0  0
   27.9429   32.3141  -24.7807 C   0  0  2  0  0  0  0  0  0  0  0  0
   28.6926   33.4865  -24.4056 O   0  0  0  0  0  0  0  0  0  0  0  0
   29.7761   32.3849  -19.9982 C   0  0  2  0  0  0  0  0  0  0  0  0
   28.6032   31.8769  -19.3418 O   0  0  0  0  0  0  0  0  0  0  0  0
   26.3727   29.6321  -22.1918 C   0  0  0  0  0  0  0  0  0  0  0  0
   27.0277   30.0799  -23.3806 O   0  0  0  0  0  0  0  0  0  0  0  0
   25.1228   26.3021  -16.8685 C   0  0  1  0  0  0  0  0  0  0  0  0
   25.8044   26.5676  -18.1071 O   0  0  0  0  0  0  0  0  0  0  0  0
   28.3277   31.8778  -26.1967 C   0  0  0  0  0  0  0  0  0  0  0  0
   28.2093   33.0124  -27.1239 O   0  0  0  0  0  0  0  0  0  0  0  0
   30.7845   32.8838  -18.9565 C   0  0  1  0  0  0  0  0  0  0  0  0
   31.2132   31.7980  -18.1317 O   0  0  0  0  0  0  0  0  0  0  0  0
   23.8280   25.5436  -17.1629 C   0  0  0  0  0  0  0  0  0  0  0  0
   23.0346   26.3019  -18.1402 N   0  0  0  0  0  0  0  0  0  0  0  0
  1  2  1  1  0  0  0
  1  7  1  0  0  0  0
  1 30  1  0  0  0  0
  3  4  1  1  0  0  0
  3  9  1  0  0  0  0
  3 39  1  0  0  0  0
  5 10  1  0  0  0  0
  5 26  1  0  0  0  0
  5 32  1  6  0  0  0
  6 12  1  0  0  0  0
  6 36  1  0  0  0  0
  6 19  1  6  0  0  0
  7  8  1  1  0  0  0
  7 14  1  0  0  0  0
  9 16  1  0  0  0  0
 10 11  1  1  0  0  0
 10 18  1  0  0  0  0
 12 13  1  6  0  0  0
 12 20  1  0  0  0  0
 14 15  1  6  0  0  0
 14 22  1  0  0  0  0
 16 17  1  1  0  0  0
 16 24  1  0  0  0  0
 18 19  1  1  0  0  0
 18 25  1  0  0  0  0
 20 21  1  1  0  0  0
 20 27  1  0  0  0  0
 22 23  1  1  0  0  0
 22 29  1  0  0  0  0
 24  2  1  6  0  0  0
 24 31  1  0  0  0  0
 25 26  1  0  0  0  0
 25 33  1  6  0  0  0
 27 28  1  6  0  0  0
 27 35  1  0  0  0  0
 29 30  1  0  0  0  0
 29 37  1  6  0  0  0
 31 32  1  1  0  0  0
 31 39  1  0  0  0  0
 33 34  1  0  0  0  0
 35 36  1  0  0  0  0
 35 41  1  6  0  0  0
 37 38  1  0  0  0  0
 39 40  1  6  0  0  0
 41 42  1  0  0  0  0
M  END
>  <CHROM.1>
-102.02060524,-163.87923710,-158.11372394,69.24695107,-52.36032218,172.69197768
67.71071097,121.08656347,-174.57007320,27.76610786,30.60505305,-20.45295553
1.25940689,-0.69839807,-0.92384992

>  <Name>
3c44_lig

>  <RI>
224

>  <Rbt.Current_Directory>
/home/itssahil/PROJECTS/Mol_Feturizer/New_Systems/rnas/3c44

>  <Rbt.Executable>
rbdock ($Id: //depot/dev/client3/rdock/2013.1/src/exe/rbdock.cxx#4 $)

>  <Rbt.Library>
libRbt.so (2013.1, Build901 2013/11/27)

>  <Rbt.Parameter_File>
/export/apps/rDock/src/rDock_2013.1_src/data/scripts/dock_solv.prm

>  <Rbt.Receptor>
prm/blind_docking_60.prm

>  <SCORE>
13.4094

>  <SCORE.INTER>
-6.07443

>  <SCORE.INTER.CONST>
1

>  <SCORE.INTER.POLAR>
-0.137925

>  <SCORE.INTER.ROT>
9

>  <SCORE.INTER.SOLV>
26.8641

>  <SCORE.INTER.VDW>
-22.1446

>  <SCORE.INTER.norm>
-0.144629

>  <SCORE.INTRA>
11.7184

>  <SCORE.INTRA.DIHEDRAL>
2.99553

>  <SCORE.INTRA.DIHEDRAL.0>
14.8538

>  <SCORE.INTRA.POLAR>
0

>  <SCORE.INTRA.POLAR.0>
0

>  <SCORE.INTRA.REPUL>
0.383165

>  <SCORE.INTRA.REPUL.0>
0

>  <SCORE.INTRA.SOLV>
0.323533

>  <SCORE.INTRA.SOLV.lig_0>
-100.951

>  <SCORE.INTRA.VDW>
8.14309

>  <SCORE.INTRA.VDW.0>
-5.71388

>  <SCORE.INTRA.norm>
0.279011

>  <SCORE.RESTR>
7.76533

>  <SCORE.RESTR.CAVITY>
7.76533

>  <SCORE.RESTR.norm>
0.184889

>  <SCORE.SYSTEM>
0

>  <SCORE.SYSTEM.CONST>
0

>  <SCORE.SYSTEM.DIHEDRAL>
0

>  <SCORE.SYSTEM.SOLV>
0

>  <SCORE.SYSTEM.norm>
0

>  <SCORE.heavy>
42

>  <SCORE.norm>
0.31927

>  <RMSD>
16.369

$$$$
3c44_lig
 OpenBabel11021811463D
libRbt.so/2013.1/901 2013/11/27
 42 45  0  0  0  0  0  0  0  0999 V2000
   28.3124   31.4732  -24.2392 C   0  0  2  0  0  0  0  0  0  0  0  0
   28.9430   32.6158  -23.6404 O   0  0  0  0  0  0  0  0  0  0  0  0
   31.1832   32.6642  -20.1520 C   0  0  2  0  0  0  0  0  0  0  0  0
   31.7896   32.6706  -18.8119 N   0  0  0  0  0  0  0  0  0  0  0  0
   28.1914   29.8455  -21.1425 C   0  0  1  0  0  0  0  0  0  0  0  0
   26.2129   27.5058  -18.3311 C   0  0  1  0  0  0  0  0  0  0  0  0
   27.9011   31.8224  -25.6734 C   0  0  2  0  0  0  0  0  0  0  0  0
   29.0512   32.3205  -26.4417 N   0  0  0  0  0  0  0  0  0  0  0  0
   30.1656   33.8004  -20.2893 C   0  0  0  0  0  0  0  0  0  0  0  0
   28.7484   29.0001  -19.9961 C   0  0  2  0  0  0  0  0  0  0  0  0
   28.7135   27.6158  -20.3486 O   0  0  0  0  0  0  0  0  0  0  0  0
   24.8729   26.8393  -18.6596 C   0  0  2  0  0  0  0  0  0  0  0  0
   23.8339   27.8781  -18.6814 N   0  0  0  0  0  0  0  0  0  0  0  0
   26.7921   32.8773  -25.6933 C   0  0  1  0  0  0  0  0  0  0  0  0
   26.3334   33.0534  -27.0371 O   0  0  0  0  0  0  0  0  0  0  0  0
   29.6933   33.8302  -21.7467 C   0  0  2  0  0  0  0  0  0  0  0  0
   28.6669   34.8717  -21.9042 N   0  0  0  0  0  0  0  0  0  0  0  0
   27.6795   29.2658  -18.9380 C   0  0  2  0  0  0  0  0  0  0  0  0
   26.4598   28.5770  -19.2589 O   0  0  0  0  0  0  0  0  0  0  0  0
   24.5028   25.7900  -17.6032 C   0  0  1  0  0  0  0  0  0  0  0  0
   25.3605   24.6507  -17.7092 O   0  0  0  0  0  0  0  0  0  0  0  0
   25.6278   32.4232  -24.8110 C   0  0  2  0  0  0  0  0  0  0  0  0
   24.6434   33.4583  -24.7445 O   0  0  0  0  0  0  0  0  0  0  0  0
   29.1150   32.4900  -22.2180 C   0  0  2  0  0  0  0  0  0  0  0  0
   27.4799   30.7627  -19.1154 C   0  0  2  0  0  0  0  0  0  0  0  0
   27.7678   31.0614  -20.4986 O   0  0  0  0  0  0  0  0  0  0  0  0
   24.6226   26.3656  -16.1911 C   0  0  2  0  0  0  0  0  0  0  0  0
   23.6107   27.3603  -16.0102 O   0  0  0  0  0  0  0  0  0  0  0  0
   26.1424   32.1107  -23.4051 C   0  0  2  0  0  0  0  0  0  0  0  0
   27.1608   31.0925  -23.4633 O   0  0  0  0  0  0  0  0  0  0  0  0
   29.9875   31.2802  -21.8896 C   0  0  2  0  0  0  0  0  0  0  0  0
   29.2332   30.0766  -22.1068 O   0  0  0  0  0  0  0  0  0  0  0  0
   28.4278   31.5178  -18.1811 C   0  0  0  0  0  0  0  0  0  0  0  0
   28.2869   32.9220  -18.4074 O   0  0  0  0  0  0  0  0  0  0  0  0
   26.0140   26.9810  -16.0208 C   0  0  1  0  0  0  0  0  0  0  0  0
   26.1699   28.0289  -16.9939 O   0  0  0  0  0  0  0  0  0  0  0  0
   24.9549   31.6161  -22.5753 C   0  0  0  0  0  0  0  0  0  0  0  0
   23.9190   32.6569  -22.5068 O   0  0  0  0  0  0  0  0  0  0  0  0
   30.4781   31.3359  -20.4379 C   0  0  1  0  0  0  0  0  0  0  0  0
   31.3632   30.2440  -20.1786 O   0  0  0  0  0  0  0  0  0  0  0  0
   26.2226   27.5625  -14.6220 C   0  0  0  0  0  0  0  0  0  0  0  0
   27.0162   26.6208  -13.8200 N   0  0  0  0  0  0  0  0  0  0  0  0
  1  2  1  1  0  0  0
  1  7  1  0  0  0  0
  1 30  1  0  0  0  0
  3  4  1  1  0  0  0
  3  9  1  0  0  0  0
  3 39  1  0  0  0  0
  5 10  1  0  0  0  0
  5 26  1  0  0  0  0
  5 32  1  6  0  0  0
  6 12  1  0  0  0  0
  6 36  1  0  0  0  0
  6 19  1  6  0  0  0
  7  8  1  6  0  0  0
  7 14  1  0  0  0  0
  9 16  1  0  0  0  0
 10 11  1  6  0  0  0
 10 18  1  0  0  0  0
 12 13  1  1  0  0  0
 12 20  1  0  0  0  0
 14 15  1  6  0  0  0
 14 22  1  0  0  0  0
 16 17  1  1  0  0  0
 16 24  1  0  0  0  0
 18 19  1  6  0  0  0
 18 25  1  0  0  0  0
 20 21  1  1  0  0  0
 20 27  1  0  0  0  0
 22 23  1  1  0  0  0
 22 29  1  0  0  0  0
 24  2  1  6  0  0  0
 24 31  1  0  0  0  0
 25 26  1  0  0  0  0
 25 33  1  1  0  0  0
 27 28  1  6  0  0  0
 27 35  1  0  0  0  0
 29 30  1  0  0  0  0
 29 37  1  1  0  0  0
 31 32  1  1  0  0  0
 31 39  1  0  0  0  0
 33 34  1  0  0  0  0
 35 36  1  0  0  0  0
 35 41  1  1  0  0  0
 37 38  1  0  0  0  0
 39 40  1  6  0  0  0
 41 42  1  0  0  0  0
M  END
>  <CHROM.1>
167.79037629,-91.53143097,177.18661695,110.80198823,-175.68183965,176.81166540
-60.33000228,-71.03703559,101.16740978,27.39627883,30.40083571,-20.59023409
1.31225221,-0.47571566,-1.02868727

>  <Name>
3c44_lig

>  <RI>
224

>  <Rbt.Current_Directory>
/home/itssahil/PROJECTS/Mol_Feturizer/New_Systems/rnas/3c44

>  <Rbt.Executable>
rbdock ($Id: //depot/dev/client3/rdock/2013.1/src/exe/rbdock.cxx#4 $)

>  <Rbt.Library>
libRbt.so (2013.1, Build901 2013/11/27)

>  <Rbt.Parameter_File>
/export/apps/rDock/src/rDock_2013.1_src/data/scripts/dock_solv.prm

>  <Rbt.Receptor>
prm/blind_docking_60.prm

>  <SCORE>
9.68309

>  <SCORE.INTER>
-1.42683

>  <SCORE.INTER.CONST>
1

>  <SCORE.INTER.POLAR>
-0.383207

>  <SCORE.INTER.ROT>
9

>  <SCORE.INTER.SOLV>
31.2514

>  <SCORE.INTER.VDW>
-19.691

>  <SCORE.INTER.norm>
-0.0339721

>  <SCORE.INTRA>
5.87796

>  <SCORE.INTRA.DIHEDRAL>
1.17748

>  <SCORE.INTRA.DIHEDRAL.0>
14.8538

>  <SCORE.INTRA.POLAR>
0

>  <SCORE.INTRA.POLAR.0>
0

>  <SCORE.INTRA.REPUL>
0

>  <SCORE.INTRA.REPUL.0>
0

>  <SCORE.INTRA.SOLV>
-1.80036

>  <SCORE.INTRA.SOLV.lig_0>
-100.951

>  <SCORE.INTRA.VDW>
6.1894

>  <SCORE.INTRA.VDW.0>
-5.71388

>  <SCORE.INTRA.norm>
0.139951

>  <SCORE.RESTR>
5.23196

>  <SCORE.RESTR.CAVITY>
5.23196

>  <SCORE.RESTR.norm>
0.124571

>  <SCORE.SYSTEM>
0

>  <SCORE.SYSTEM.CONST>
0

>  <SCORE.SYSTEM.DIHEDRAL>
0

>  <SCORE.SYSTEM.SOLV>
0

>  <SCORE.SYSTEM.norm>
0

>  <SCORE.heavy>
42

>  <SCORE.norm>
0.23055

>  <RMSD>
16.432

$$$$
3c44_lig
 OpenBabel11021811463D
libRbt.so/2013.1/901 2013/11/27
 42 45  0  0  0  0  0  0  0  0999 V2000
   28.2609   31.4505  -24.2498 C   0  0  2  0  0  0  0  0  0  0  0  0
   28.8788   32.5816  -23.6168 O   0  0  0  0  0  0  0  0  0  0  0  0
   31.1389   32.5309  -20.1414 C   0  0  2  0  0  0  0  0  0  0  0  0
   31.7532   32.4979  -18.8051 N   0  0  0  0  0  0  0  0  0  0  0  0
   28.1856   29.7056  -21.1788 C   0  0  1  0  0  0  0  0  0  0  0  0
   26.6969   27.0352  -18.6581 C   0  0  1  0  0  0  0  0  0  0  0  0
   27.8843   31.8249  -25.6872 C   0  0  2  0  0  0  0  0  0  0  0  0
   29.0530   32.3339  -26.4194 N   0  0  0  0  0  0  0  0  0  0  0  0
   30.1151   33.6657  -20.2368 C   0  0  0  0  0  0  0  0  0  0  0  0
   28.8255   28.9301  -20.0263 C   0  0  2  0  0  0  0  0  0  0  0  0
   28.8927   27.5402  -20.3510 O   0  0  0  0  0  0  0  0  0  0  0  0
   25.3376   26.3309  -18.7218 C   0  0  2  0  0  0  0  0  0  0  0  0
   24.3376   27.1995  -18.0857 N   0  0  0  0  0  0  0  0  0  0  0  0
   26.7777   32.8820  -25.7154 C   0  0  1  0  0  0  0  0  0  0  0  0
   26.3512   33.0818  -27.0665 O   0  0  0  0  0  0  0  0  0  0  0  0
   29.6341   33.7392  -21.6898 C   0  0  2  0  0  0  0  0  0  0  0  0
   28.6018   34.7799  -21.8085 N   0  0  0  0  0  0  0  0  0  0  0  0
   27.7567   29.1341  -18.9545 C   0  0  2  0  0  0  0  0  0  0  0  0
   26.5892   28.3463  -19.2399 O   0  0  0  0  0  0  0  0  0  0  0  0
   25.3737   24.9893  -17.9783 C   0  0  1  0  0  0  0  0  0  0  0  0
   26.1612   24.0392  -18.7008 O   0  0  0  0  0  0  0  0  0  0  0  0
   25.5920   32.4151  -24.8689 C   0  0  2  0  0  0  0  0  0  0  0  0
   24.6078   33.4507  -24.8080 O   0  0  0  0  0  0  0  0  0  0  0  0
   29.0597   32.4117  -22.2000 C   0  0  2  0  0  0  0  0  0  0  0  0
   27.4384   30.6071  -19.1575 C   0  0  2  0  0  0  0  0  0  0  0  0
   27.6793   30.8983  -20.5512 O   0  0  0  0  0  0  0  0  0  0  0  0
   25.9647   25.1532  -16.5770 C   0  0  2  0  0  0  0  0  0  0  0  0
   25.0610   25.9260  -15.7818 O   0  0  0  0  0  0  0  0  0  0  0  0
   26.0727   32.0777  -23.4567 C   0  0  2  0  0  0  0  0  0  0  0  0
   27.0907   31.0587  -23.5081 O   0  0  0  0  0  0  0  0  0  0  0  0
   29.9399   31.1965  -21.9151 C   0  0  2  0  0  0  0  0  0  0  0  0
   29.1902   29.9966  -22.1660 O   0  0  0  0  0  0  0  0  0  0  0  0
   28.3399   31.4526  -18.2553 C   0  0  0  0  0  0  0  0  0  0  0  0
   28.1790   31.0250  -16.9010 O   0  0  0  0  0  0  0  0  0  0  0  0
   27.3184   25.8598  -16.6872 C   0  0  1  0  0  0  0  0  0  0  0  0
   27.1101   27.1505  -17.2871 O   0  0  0  0  0  0  0  0  0  0  0  0
   24.8650   31.5712  -22.6639 C   0  0  0  0  0  0  0  0  0  0  0  0
   24.2095   30.4736  -23.3894 O   0  0  0  0  0  0  0  0  0  0  0  0
   30.4387   31.2088  -20.4652 C   0  0  1  0  0  0  0  0  0  0  0  0
   31.3306   30.1137  -20.2456 O   0  0  0  0  0  0  0  0  0  0  0  0
   27.9880   26.0437  -15.3247 C   0  0  0  0  0  0  0  0  0  0  0  0
   29.4058   26.3754  -15.5233 N   0  0  0  0  0  0  0  0  0  0  0  0
  1  2  1  1  0  0  0
  1  7  1  0  0  0  0
  1 30  1  0  0  0  0
  3  4  1  1  0  0  0
  3  9  1  0  0  0  0
  3 39  1  0  0  0  0
  5 10  1  0  0  0  0
  5 26  1  0  0  0  0
  5 32  1  6  0  0  0
  6 12  1  0  0  0  0
  6 36  1  0  0  0  0
  6 19  1  1  0  0  0
  7  8  1  1  0  0  0
  7 14  1  0  0  0  0
  9 16  1  0  0  0  0
 10 11  1  6  0  0  0
 10 18  1  0  0  0  0
 12 13  1  1  0  0  0
 12 20  1  0  0  0  0
 14 15  1  6  0  0  0
 14 22  1  0  0  0  0
 16 17  1  1  0  0  0
 16 24  1  0  0  0  0
 18 19  1  6  0  0  0
 18 25  1  0  0  0  0
 20 21  1  6  0  0  0
 20 27  1  0  0  0  0
 22 23  1  1  0  0  0
 22 29  1  0  0  0  0
 24  2  1  6  0  0  0
 24 31  1  0  0  0  0
 25 26  1  0  0  0  0
 25 33  1  1  0  0  0
 27 28  1  1  0  0  0
 27 35  1  0  0  0  0
 29 30  1  0  0  0  0
 29 37  1  1  0  0  0
 31 32  1  1  0  0  0
 31 39  1  0  0  0  0
 33 34  1  0  0  0  0
 35 36  1  0  0  0  0
 35 41  1  1  0  0  0
 37 38  1  0  0  0  0
 39 40  1  6  0  0  0
 41 42  1  0  0  0  0
M  END
>  <CHROM.1>
169.85754897,-85.87198467,168.15001969,88.82154187,-176.19656753,-55.72988919
53.27613640,-73.05485014,164.53351451,27.67817059,30.01197341,-20.69633821
1.46419055,-0.59324046,-0.89980474

>  <Name>
3c44_lig

>  <RI>
224

>  <Rbt.Current_Directory>
/home/itssahil/PROJECTS/Mol_Feturizer/New_Systems/rnas/3c44

>  <Rbt.Executable>
rbdock ($Id: //depot/dev/client3/rdock/2013.1/src/exe/rbdock.cxx#4 $)

>  <Rbt.Library>
libRbt.so (2013.1, Build901 2013/11/27)

>  <Rbt.Parameter_File>
/export/apps/rDock/src/rDock_2013.1_src/data/scripts/dock_solv.prm

>  <Rbt.Receptor>
prm/blind_docking_60.prm

>  <SCORE>
2.12205

>  <SCORE.INTER>
-3.47408

>  <SCORE.INTER.CONST>
1

>  <SCORE.INTER.POLAR>
-0.385655

>  <SCORE.INTER.ROT>
9

>  <SCORE.INTER.SOLV>
38.2443

>  <SCORE.INTER.VDW>
-23.3787

>  <SCORE.INTER.norm>
-0.0827162

>  <SCORE.INTRA>
2.46269

>  <SCORE.INTRA.DIHEDRAL>
-5.43221

>  <SCORE.INTRA.DIHEDRAL.0>
14.8538

>  <SCORE.INTRA.POLAR>
0

>  <SCORE.INTRA.POLAR.0>
0

>  <SCORE.INTRA.REPUL>
0

>  <SCORE.INTRA.REPUL.0>
0

>  <SCORE.INTRA.SOLV>
-2.685

>  <SCORE.INTRA.SOLV.lig_0>
-100.951

>  <SCORE.INTRA.VDW>
6.5213

>  <SCORE.INTRA.VDW.0>
-5.71388

>  <SCORE.INTRA.norm>
0.0586355

>  <SCORE.RESTR>
3.13344

>  <SCORE.RESTR.CAVITY>
3.13344

>  <SCORE.RESTR.norm>
0.0746057

>  <SCORE.SYSTEM>
0

>  <SCORE.SYSTEM.CONST>
0

>  <SCORE.SYSTEM.DIHEDRAL>
0

>  <SCORE.SYSTEM.SOLV>
0

>  <SCORE.SYSTEM.norm>
0

>  <SCORE.heavy>
42

>  <SCORE.norm>
0.0505251

>  <RMSD>
16.477

$$$$
