2esj_lig
 OpenBabel02221317003D

 52 56  0  0  1  0  0  0  0  0999 V2000
   17.1930   -6.5840   18.7250 C   0  0  2  0  0  0  0  0  0  0  0  0
   17.7050   -7.8930   19.0400 O   0  0  0  0  0  0  0  0  0  0  0  0
   19.4380  -11.1550   16.8850 C   0  0  2  0  0  0  0  0  0  0  0  0
   19.6790  -12.3050   15.9980 N   0  0  0  0  0  0  0  0  0  0  0  0
   19.5130   -6.6240   15.6920 C   0  0  1  0  0  0  0  0  0  0  0  0
   21.8830   -3.8650   13.5010 C   0  0  1  0  0  0  0  0  0  0  0  0
   27.2260   -3.6090   13.7990 C   0  0  1  0  0  0  0  0  0  0  0  0
   17.8890   -5.5670   19.6770 C   0  0  2  0  0  0  0  0  0  0  0  0
   19.3470   -5.6220   19.5750 N   0  0  0  0  0  0  0  0  0  0  0  0
   18.2450  -11.4650   17.8740 C   0  0  0  0  0  0  0  0  0  0  0  0
   19.0030   -5.9040   14.4430 C   0  0  2  0  0  0  0  0  0  0  0  0
   19.1870   -6.6860   13.2430 O   0  0  0  0  0  0  0  0  0  0  0  0
   22.9680   -4.5870   12.5830 C   0  0  2  0  0  0  0  0  0  0  0  0
   23.6630   -5.6700   13.3280 N   0  0  0  0  0  0  0  0  0  0  0  0
   27.3290   -4.5560   14.9890 C   0  0  1  0  0  0  0  0  0  0  0  0
   28.6050   -5.2260   14.9520 O   0  0  0  0  0  0  0  0  0  0  0  0
   17.4520   -5.8010   21.1580 C   0  0  0  0  0  0  0  0  0  0  0  0
   18.0400  -10.2430   18.8570 C   0  0  2  0  0  0  0  0  0  0  0  0
   16.9280  -10.5000   19.7780 N   0  0  0  0  0  0  0  0  0  0  0  0
   19.8270   -4.6500   14.4940 C   0  0  2  0  0  0  0  0  0  0  0  0
   21.1400   -4.9060   14.0640 O   0  0  0  0  0  0  0  0  0  0  0  0
   23.9260   -3.4840   11.9500 C   0  0  1  0  0  0  0  0  0  0  0  0
   23.1230   -2.4780   11.3240 O   0  0  0  0  0  0  0  0  0  0  0  0
   27.1810   -3.9010   16.3570 C   0  0  1  0  0  0  0  0  0  0  0  0
   27.5380   -4.8820   17.3370 O   0  0  0  0  0  0  0  0  0  0  0  0
   15.8970   -5.7610   21.2360 C   0  0  2  0  0  0  0  0  0  0  0  0
   15.4330   -5.8900   22.5680 O   0  0  0  0  0  0  0  0  0  0  0  0
   17.7870   -8.9400   18.0550 C   0  0  2  0  0  0  0  0  0  0  0  0
   19.9840   -4.3080   15.9900 C   0  0  2  0  0  0  0  0  0  0  0  0
   19.9400   -5.5920   16.5920 O   0  0  0  0  0  0  0  0  0  0  0  0
   24.7630   -2.7350   13.0670 C   0  0  2  0  0  0  0  0  0  0  0  0
   25.5740   -3.7590   13.6450 O   0  0  0  0  0  0  0  0  0  0  0  0
   28.0530   -2.6580   16.5430 C   0  0  2  0  0  0  0  0  0  0  0  0
   27.5800   -1.9900   17.7240 O   0  0  0  0  0  0  0  0  0  0  0  0
   15.3340   -6.8800   20.3250 C   0  0  2  0  0  0  0  0  0  0  0  0
   15.7660   -6.5890   18.9650 O   0  0  0  0  0  0  0  0  0  0  0  0
   18.8710   -8.6350   16.9720 C   0  0  2  0  0  0  0  0  0  0  0  0
   18.4970   -7.4390   16.2330 O   0  0  0  0  0  0  0  0  0  0  0  0
   18.8990   -3.4240   16.6040 C   0  0  0  0  0  0  0  0  0  0  0  0
   19.4650   -2.7820   17.7560 O   0  0  0  0  0  0  0  0  0  0  0  0
   23.7630   -2.3520   14.1410 C   0  0  1  0  0  0  0  0  0  0  0  0
   22.5580   -3.0230   14.5680 O   0  0  0  0  0  0  0  0  0  0  0  0
   28.0610   -1.7880   15.2910 C   0  0  2  0  0  0  0  0  0  0  0  0
   27.9430   -2.3640   13.9810 O   0  0  0  0  0  0  0  0  0  0  0  0
   13.8440   -6.9060   20.2840 C   0  0  0  0  0  0  0  0  0  0  0  0
   13.4640   -7.9430   19.4120 O   0  0  0  0  0  0  0  0  0  0  0  0
   19.0940   -9.8750   16.0420 C   0  0  1  0  0  0  0  0  0  0  0  0
   20.2400   -9.5800   15.2000 O   0  0  0  0  0  0  0  0  0  0  0  0
   24.3110   -1.5000   15.3270 C   0  0  0  0  0  0  0  0  0  0  0  0
   23.7780   -1.9140   16.6420 N   0  0  0  0  0  0  0  0  0  0  0  0
   28.8550   -0.4880   15.1850 C   0  0  0  0  0  0  0  0  0  0  0  0
   30.2650   -0.7820   15.0000 O   0  0  0  0  0  0  0  0  0  0  0  0
  1  2  1  1  0  0  0
  1  8  1  0  0  0  0
  1 36  1  0  0  0  0
  3  4  1  6  0  0  0
  3 10  1  0  0  0  0
  3 47  1  0  0  0  0
  5 11  1  0  0  0  0
  5 30  1  0  0  0  0
  5 38  1  1  0  0  0
  6 21  1  1  0  0  0
  6 42  1  0  0  0  0
  7 15  1  0  0  0  0
  7 44  1  0  0  0  0
  7 32  1  1  0  0  0
  8  9  1  1  0  0  0
  8 17  1  0  0  0  0
 11 12  1  6  0  0  0
 11 20  1  0  0  0  0
 13  6  1  0  0  0  0
 13 14  1  1  0  0  0
 15 16  1  1  0  0  0
 15 24  1  0  0  0  0
 17 26  1  0  0  0  0
 18 10  1  0  0  0  0
 18 19  1  6  0  0  0
 20 21  1  1  0  0  0
 20 29  1  0  0  0  0
 22 13  1  0  0  0  0
 22 23  1  1  0  0  0
 24 25  1  6  0  0  0
 24 33  1  0  0  0  0
 26 27  1  1  0  0  0
 26 35  1  0  0  0  0
 28  2  1  1  0  0  0
 28 18  1  0  0  0  0
 29 30  1  0  0  0  0
 29 39  1  6  0  0  0
 31 22  1  0  0  0  0
 31 32  1  1  0  0  0
 31 41  1  0  0  0  0
 33 34  1  6  0  0  0
 33 43  1  0  0  0  0
 35 36  1  0  0  0  0
 35 45  1  6  0  0  0
 37 28  1  0  0  0  0
 37 38  1  6  0  0  0
 39 40  1  0  0  0  0
 41 42  1  0  0  0  0
 41 49  1  1  0  0  0
 43 44  1  0  0  0  0
 43 51  1  6  0  0  0
 45 46  1  0  0  0  0
 47 37  1  0  0  0  0
 47 48  1  1  0  0  0
 49 50  1  0  0  0  0
 51 52  1  0  0  0  0
M  END
$$$$
